  Page 1                                    Tue Apr 21 09:41:52 2026

  ******************************************************************
  *                           E P A N E T                          *
  *                   Hydraulic and Water Quality                  *
  *                   Analysis for Pipe Networks                   *
  *                          Version 2.3.04                        *
  ******************************************************************
  
  Processing MSX input file CY-DBP_competition_stream_competition_6days_8.msx
  
  Analysis begun Tue Apr 21 09:41:53 2026

   
  Hydraulic Status:
  -----------------------------------------------------------------------
     0:00:00: Balancing the network:

              Trial  1: relative flow change = 1.846674
              PRV PRV_inlet switched from active to closed
              Trial  2: relative flow change = 0.449417
              PRV PRV_dist switched from active to open
              PRV PRV_inlet switched from closed to active
              Trial  3: relative flow change = 0.356093
              PRV PRV_dist switched from open to active
              Trial  4: relative flow change = 0.198342
              Trial  5: relative flow change = 0.038941
              Trial  6: relative flow change = 0.006473
                        maximum  flow change = 0.2397 for Link p-797
                        maximum  head error  = 0.0004 for Link p-547

     0:00:00: Balanced after 6 trials
     0:00:00: Reservoir WTP is emptying
     0:00:00: Tank T_Zone is filling at 5.00 m
   
     0:05:00: Balancing the network:

              Trial  1: relative flow change = 0.051841
              Trial  2: relative flow change = 0.010069
              Trial  3: relative flow change = 0.000559
                        maximum  flow change = 0.2981 for Link 5
                        maximum  head error  = 0.0000 for Link p-831

     0:05:00: Balanced after 3 trials
   
     0:10:00: Balancing the network:

              Trial  1: relative flow change = 0.051966
              Trial  2: relative flow change = 0.015726
              Trial  3: relative flow change = 0.001133
                        maximum  flow change = 0.8179 for Link PRV_inlet
                        maximum  head error  = 0.0000 for Link p-831

     0:10:00: Balanced after 3 trials
   
     0:15:00: Balancing the network:

              Trial  1: relative flow change = 0.035629
              Trial  2: relative flow change = 0.011191
              Trial  3: relative flow change = 0.000861
                        maximum  flow change = 0.7331 for Link 5
                        maximum  head error  = 0.0000 for Link 5

     0:15:00: Balanced after 3 trials
   
     0:20:00: Balancing the network:

              Trial  1: relative flow change = 0.044853
              Trial  2: relative flow change = 0.007333
                        maximum  flow change = 4.6717 for Link 5
                        maximum  head error  = 0.0001 for Link 5

     0:20:00: Balanced after 2 trials
   
     0:25:00: Balancing the network:

              Trial  1: relative flow change = 0.040303
              Trial  2: relative flow change = 0.005920
                        maximum  flow change = 3.3482 for Link 5
                        maximum  head error  = 0.0001 for Link 5

     0:25:00: Balanced after 2 trials
   
     0:30:00: Balancing the network:

              Trial  1: relative flow change = 0.046300
              Trial  2: relative flow change = 0.010504
              Trial  3: relative flow change = 0.001021
                        maximum  flow change = 0.6847 for Link PRV_inlet
                        maximum  head error  = 0.0000 for Link 5

     0:30:00: Balanced after 3 trials
   
     0:35:00: Balancing the network:

              Trial  1: relative flow change = 0.034986
              Trial  2: relative flow change = 0.014105
              Trial  3: relative flow change = 0.001092
                        maximum  flow change = 0.8165 for Link PRV_inlet
                        maximum  head error  = 0.0000 for Link 5

     0:35:00: Balanced after 3 trials
   
     0:40:00: Balancing the network:

              Trial  1: relative flow change = 0.047028
              Trial  2: relative flow change = 0.009073
                        maximum  flow change = 5.2823 for Link 5
                        maximum  head error  = 0.0002 for Link 5

     0:40:00: Balanced after 2 trials
   
     0:45:00: Balancing the network:

              Trial  1: relative flow change = 0.043122
              Trial  2: relative flow change = 0.012649
              Trial  3: relative flow change = 0.001120
                        maximum  flow change = 0.5980 for Link PRV_inlet
                        maximum  head error  = 0.0001 for Link p-115

     0:45:00: Balanced after 3 trials
   
     0:50:00: Balancing the network:

              Trial  1: relative flow change = 0.043869
              Trial  2: relative flow change = 0.008135
                        maximum  flow change = 5.9489 for Link PRV_inlet
                        maximum  head error  = 0.0002 for Link 5

     0:50:00: Balanced after 2 trials
   
     0:55:00: Balancing the network:

              Trial  1: relative flow change = 0.050326
              Trial  2: relative flow change = 0.007862
                        maximum  flow change = 5.4201 for Link PRV_inlet
                        maximum  head error  = 0.0002 for Link 5

     0:55:00: Balanced after 2 trials
   
     1:00:00: Balancing the network:

              Trial  1: relative flow change = 0.040996
              Trial  2: relative flow change = 0.003958
                        maximum  flow change = 1.3934 for Link PRV_inlet
                        maximum  head error  = 0.0000 for Link p-1429

     1:00:00: Balanced after 2 trials
   
     1:05:00: Balancing the network:

              Trial  1: relative flow change = 0.034588
              Trial  2: relative flow change = 0.005913
                        maximum  flow change = 1.8285 for Link PRV_inlet
                        maximum  head error  = 0.0002 for Link p-582

     1:05:00: Balanced after 2 trials
   
     1:10:00: Balancing the network:

              Trial  1: relative flow change = 0.038319
              Trial  2: relative flow change = 0.005183
                        maximum  flow change = 2.2488 for Link PRV_inlet
                        maximum  head error  = 0.0001 for Link p-196

     1:10:00: Balanced after 2 trials
   
     1:15:00: Balancing the network:

              Trial  1: relative flow change = 0.051965
              Trial  2: relative flow change = 0.007804
                        maximum  flow change = 5.2734 for Link 5
                        maximum  head error  = 0.0002 for Link 5

     1:15:00: Balanced after 2 trials
   
     1:20:00: Balancing the network:

              Trial  1: relative flow change = 0.034602
              Trial  2: relative flow change = 0.002738
                        maximum  flow change = 0.1599 for Link PRV_inlet
                        maximum  head error  = 0.0000 for Link p-582

     1:20:00: Balanced after 2 trials
   
     1:25:00: Balancing the network:

              Trial  1: relative flow change = 0.035948
              Trial  2: relative flow change = 0.004701
                        maximum  flow change = 1.1819 for Link PRV_inlet
                        maximum  head error  = 0.0001 for Link p-196

     1:25:00: Balanced after 2 trials
   
     1:30:00: Balancing the network:

              Trial  1: relative flow change = 0.037139
              Trial  2: relative flow change = 0.017002
              Trial  3: relative flow change = 0.001748
                        maximum  flow change = 0.9229 for Link PRV_inlet
                        maximum  head error  = 0.0000 for Link p-243

     1:30:00: Balanced after 3 trials
   
     1:35:00: Balancing the network:

              Trial  1: relative flow change = 0.030720
              Trial  2: relative flow change = 0.012561
              Trial  3: relative flow change = 0.001082
                        maximum  flow change = 0.6202 for Link 5
                        maximum  head error  = 0.0000 for Link p-196

     1:35:00: Balanced after 3 trials
   
     1:40:00: Balancing the network:

              Trial  1: relative flow change = 0.031592
              Trial  2: relative flow change = 0.009537
                        maximum  flow change = 2.1165 for Link 5
                        maximum  head error  = 0.0001 for Link p-243

     1:40:00: Balanced after 2 trials
   
     1:45:00: Balancing the network:

              Trial  1: relative flow change = 0.023856
              Trial  2: relative flow change = 0.002648
                        maximum  flow change = 0.4318 for Link 5
                        maximum  head error  = 0.0000 for Link p-766

     1:45:00: Balanced after 2 trials
   
     1:50:00: Balancing the network:

              Trial  1: relative flow change = 0.027213
              Trial  2: relative flow change = 0.009436
                        maximum  flow change = 0.5367 for Link p-1144
                        maximum  head error  = 0.0001 for Link p-461

     1:50:00: Balanced after 2 trials
   
     1:55:00: Balancing the network:

              Trial  1: relative flow change = 0.027282
              Trial  2: relative flow change = 0.006405
                        maximum  flow change = 2.0561 for Link 5
                        maximum  head error  = 0.0001 for Link p-547

     1:55:00: Balanced after 2 trials
   
     2:00:00: Balancing the network:

              Trial  1: relative flow change = 0.026912
              Trial  2: relative flow change = 0.006868
                        maximum  flow change = 0.7916 for Link PRV_inlet
                        maximum  head error  = 0.0001 for Link p-196

     2:00:00: Balanced after 2 trials
   
     2:05:00: Balancing the network:

              Trial  1: relative flow change = 0.037293
              Trial  2: relative flow change = 0.002845
                        maximum  flow change = 0.2526 for Link 5
                        maximum  head error  = 0.0000 for Link p-115

     2:05:00: Balanced after 2 trials
   
     2:10:00: Balancing the network:

              Trial  1: relative flow change = 0.025541
              Trial  2: relative flow change = 0.005679
                        maximum  flow change = 0.5378 for Link PRV_inlet
                        maximum  head error  = 0.0000 for Link p-11

     2:10:00: Balanced after 2 trials
   
     2:15:00: Balancing the network:

              Trial  1: relative flow change = 0.028514
              Trial  2: relative flow change = 0.003229
                        maximum  flow change = 0.6634 for Link PRV_inlet
                        maximum  head error  = 0.0001 for Link p-196

     2:15:00: Balanced after 2 trials
   
     2:20:00: Balancing the network:

              Trial  1: relative flow change = 0.038284
              Trial  2: relative flow change = 0.006521
                        maximum  flow change = 2.2550 for Link PRV_inlet
                        maximum  head error  = 0.0001 for Link p-831

     2:20:00: Balanced after 2 trials
   
     2:25:00: Balancing the network:

              Trial  1: relative flow change = 0.032873
              Trial  2: relative flow change = 0.006194
                        maximum  flow change = 2.5785 for Link 5
                        maximum  head error  = 0.0001 for Link p-582

     2:25:00: Balanced after 2 trials
   
     2:30:00: Balancing the network:

              Trial  1: relative flow change = 0.043239
              Trial  2: relative flow change = 0.007528
                        maximum  flow change = 2.5924 for Link 5
                        maximum  head error  = 0.0001 for Link p-901

     2:30:00: Balanced after 2 trials
   
     2:35:00: Balancing the network:

              Trial  1: relative flow change = 0.027522
              Trial  2: relative flow change = 0.009082
                        maximum  flow change = 0.9098 for Link 5
                        maximum  head error  = 0.0001 for Link p-831

     2:35:00: Balanced after 2 trials
   
     2:40:00: Balancing the network:

              Trial  1: relative flow change = 0.032926
              Trial  2: relative flow change = 0.011626
              Trial  3: relative flow change = 0.001040
                        maximum  flow change = 0.5790 for Link 5
                        maximum  head error  = 0.0000 for Link p-124

     2:40:00: Balanced after 3 trials
   
     2:45:00: Balancing the network:

              Trial  1: relative flow change = 0.031805
              Trial  2: relative flow change = 0.004102
                        maximum  flow change = 1.5181 for Link PRV_inlet
                        maximum  head error  = 0.0000 for Link p-196

     2:45:00: Balanced after 2 trials
   
     2:50:00: Balancing the network:

              Trial  1: relative flow change = 0.033685
              Trial  2: relative flow change = 0.005552
                        maximum  flow change = 1.5174 for Link PRV_inlet
                        maximum  head error  = 0.0001 for Link p-512

     2:50:00: Balanced after 2 trials
   
     2:55:00: Balancing the network:

              Trial  1: relative flow change = 0.052063
              Trial  2: relative flow change = 0.007859
                        maximum  flow change = 4.3919 for Link 5
                        maximum  head error  = 0.0001 for Link 5

     2:55:00: Balanced after 2 trials
   
     3:00:00: Balancing the network:

              Trial  1: relative flow change = 0.045241
              Trial  2: relative flow change = 0.010357
              Trial  3: relative flow change = 0.000563
                        maximum  flow change = 0.3696 for Link 5
                        maximum  head error  = 0.0000 for Link p-196

     3:00:00: Balanced after 3 trials
   
     3:05:00: Balancing the network:

              Trial  1: relative flow change = 0.030482
              Trial  2: relative flow change = 0.007687
                        maximum  flow change = 1.1021 for Link 5
                        maximum  head error  = 0.0001 for Link p-582

     3:05:00: Balanced after 2 trials
   
     3:10:00: Balancing the network:

              Trial  1: relative flow change = 0.046136
              Trial  2: relative flow change = 0.006199
                        maximum  flow change = 2.9261 for Link 5
                        maximum  head error  = 0.0001 for Link p-831

     3:10:00: Balanced after 2 trials
   
     3:15:00: Balancing the network:

              Trial  1: relative flow change = 0.034689
              Trial  2: relative flow change = 0.004948
                        maximum  flow change = 2.3728 for Link 5
                        maximum  head error  = 0.0000 for Link 5

     3:15:00: Balanced after 2 trials
   
     3:20:00: Balancing the network:

              Trial  1: relative flow change = 0.042427
              Trial  2: relative flow change = 0.003381
                        maximum  flow change = 1.3104 for Link PRV_inlet
                        maximum  head error  = 0.0001 for Link p-831

     3:20:00: Balanced after 2 trials
   
     3:25:00: Balancing the network:

              Trial  1: relative flow change = 0.045507
              Trial  2: relative flow change = 0.006511
                        maximum  flow change = 2.9471 for Link PRV_inlet
                        maximum  head error  = 0.0001 for Link 5

     3:25:00: Balanced after 2 trials
   
     3:30:00: Balancing the network:

              Trial  1: relative flow change = 0.042542
              Trial  2: relative flow change = 0.006678
                        maximum  flow change = 3.3584 for Link 5
                        maximum  head error  = 0.0001 for Link 5

     3:30:00: Balanced after 2 trials
   
     3:35:00: Balancing the network:

              Trial  1: relative flow change = 0.030252
              Trial  2: relative flow change = 0.006681
                        maximum  flow change = 2.2747 for Link PRV_inlet
                        maximum  head error  = 0.0002 for Link p-831

     3:35:00: Balanced after 2 trials
   
     3:40:00: Balancing the network:

              Trial  1: relative flow change = 0.030816
              Trial  2: relative flow change = 0.003871
                        maximum  flow change = 1.6094 for Link 5
                        maximum  head error  = 0.0001 for Link p-547

     3:40:00: Balanced after 2 trials
   
     3:45:00: Balancing the network:

              Trial  1: relative flow change = 0.037097
              Trial  2: relative flow change = 0.008852
                        maximum  flow change = 1.2355 for Link 5
                        maximum  head error  = 0.0000 for Link p-461

     3:45:00: Balanced after 2 trials
   
     3:50:00: Balancing the network:

              Trial  1: relative flow change = 0.027564
              Trial  2: relative flow change = 0.003662
                        maximum  flow change = 0.6404 for Link PRV_inlet
                        maximum  head error  = 0.0001 for Link p-831

     3:50:00: Balanced after 2 trials
   
     3:55:00: Balancing the network:

              Trial  1: relative flow change = 0.049445
              Trial  2: relative flow change = 0.013437
              Trial  3: relative flow change = 0.000983
                        maximum  flow change = 0.4977 for Link 5
                        maximum  head error  = 0.0000 for Link p-582

     3:55:00: Balanced after 3 trials
   
     4:00:00: Balancing the network:

              Trial  1: relative flow change = 0.056311
              Trial  2: relative flow change = 0.011750
              Trial  3: relative flow change = 0.000811
                        maximum  flow change = 0.3544 for Link PRV_inlet
                        maximum  head error  = 0.0000 for Link p-831

     4:00:00: Balanced after 3 trials
   
     4:05:00: Balancing the network:

              Trial  1: relative flow change = 0.027320
              Trial  2: relative flow change = 0.005742
                        maximum  flow change = 1.3910 for Link 5
                        maximum  head error  = 0.0001 for Link p-729

     4:05:00: Balanced after 2 trials
   
     4:10:00: Balancing the network:

              Trial  1: relative flow change = 0.043495
              Trial  2: relative flow change = 0.012801
              Trial  3: relative flow change = 0.000972
                        maximum  flow change = 0.5576 for Link PRV_inlet
                        maximum  head error  = 0.0000 for Link p-831

     4:10:00: Balanced after 3 trials
   
     4:15:00: Balancing the network:

              Trial  1: relative flow change = 0.065717
              Trial  2: relative flow change = 0.025312
              Trial  3: relative flow change = 0.001646
                        maximum  flow change = 1.1512 for Link PRV_inlet
                        maximum  head error  = 0.0000 for Link p-196

     4:15:00: Balanced after 3 trials
   
     4:20:00: Balancing the network:

              Trial  1: relative flow change = 0.041949
              Trial  2: relative flow change = 0.008246
                        maximum  flow change = 3.7634 for Link PRV_inlet
                        maximum  head error  = 0.0001 for Link p-729

     4:20:00: Balanced after 2 trials
   
     4:25:00: Balancing the network:

              Trial  1: relative flow change = 0.056166
              Trial  2: relative flow change = 0.016807
              Trial  3: relative flow change = 0.001034
                        maximum  flow change = 0.7953 for Link PRV_inlet
                        maximum  head error  = 0.0000 for Link 5

     4:25:00: Balanced after 3 trials
   
     4:30:00: Balancing the network:

              Trial  1: relative flow change = 0.030335
              Trial  2: relative flow change = 0.015445
              Trial  3: relative flow change = 0.001587
                        maximum  flow change = 0.9823 for Link 5
                        maximum  head error  = 0.0000 for Link p-582

     4:30:00: Balanced after 3 trials
   
     4:35:00: Balancing the network:

              Trial  1: relative flow change = 0.033747
              Trial  2: relative flow change = 0.008123
                        maximum  flow change = 0.5836 for Link p-1144
                        maximum  head error  = 0.0001 for Link p-11

     4:35:00: Balanced after 2 trials
   
     4:40:00: Balancing the network:

              Trial  1: relative flow change = 0.037970
              Trial  2: relative flow change = 0.007276
                        maximum  flow change = 2.4153 for Link PRV_inlet
                        maximum  head error  = 0.0001 for Link p-115

     4:40:00: Balanced after 2 trials
   
     4:45:00: Balancing the network:

              Trial  1: relative flow change = 0.049501
              Trial  2: relative flow change = 0.008888
                        maximum  flow change = 3.9959 for Link PRV_inlet
                        maximum  head error  = 0.0001 for Link p-582

     4:45:00: Balanced after 2 trials
   
     4:50:00: Balancing the network:

              Trial  1: relative flow change = 0.053616
              Trial  2: relative flow change = 0.007570
                        maximum  flow change = 3.7633 for Link PRV_inlet
                        maximum  head error  = 0.0001 for Link 5

     4:50:00: Balanced after 2 trials
   
     4:55:00: Balancing the network:

              Trial  1: relative flow change = 0.043232
              Trial  2: relative flow change = 0.010070
              Trial  3: relative flow change = 0.000592
                        maximum  flow change = 0.5339 for Link PRV_inlet
                        maximum  head error  = 0.0000 for Link 5

     4:55:00: Balanced after 3 trials
   
     5:00:00: Balancing the network:

              Trial  1: relative flow change = 0.057758
              Trial  2: relative flow change = 0.013046
              Trial  3: relative flow change = 0.000739
                        maximum  flow change = 0.5988 for Link 5
                        maximum  head error  = 0.0000 for Link p-196

     5:00:00: Balanced after 3 trials
   
     5:05:00: Balancing the network:

              Trial  1: relative flow change = 0.039523
              Trial  2: relative flow change = 0.007860
                        maximum  flow change = 2.7893 for Link 5
                        maximum  head error  = 0.0001 for Link p-582

     5:05:00: Balanced after 2 trials
   
     5:10:00: Balancing the network:

              Trial  1: relative flow change = 0.063952
              Trial  2: relative flow change = 0.009670
                        maximum  flow change = 8.2936 for Link PRV_inlet
                        maximum  head error  = 0.0004 for Link 5

     5:10:00: Balanced after 2 trials
   
     5:15:00: Balancing the network:

              Trial  1: relative flow change = 0.047819
              Trial  2: relative flow change = 0.005951
                        maximum  flow change = 4.3952 for Link 5
                        maximum  head error  = 0.0001 for Link 5

     5:15:00: Balanced after 2 trials
   
     5:20:00: Balancing the network:

              Trial  1: relative flow change = 0.035121
              Trial  2: relative flow change = 0.019747
              Trial  3: relative flow change = 0.001857
                        maximum  flow change = 1.6425 for Link 5
                        maximum  head error  = 0.0000 for Link 5

     5:20:00: Balanced after 3 trials
   
     5:25:00: Balancing the network:

              Trial  1: relative flow change = 0.047826
              Trial  2: relative flow change = 0.010404
              Trial  3: relative flow change = 0.000662
                        maximum  flow change = 0.4726 for Link 5
                        maximum  head error  = 0.0001 for Link p-547

     5:25:00: Balanced after 3 trials
   
     5:30:00: Balancing the network:

              Trial  1: relative flow change = 0.049819
              Trial  2: relative flow change = 0.018917
              Trial  3: relative flow change = 0.001409
                        maximum  flow change = 1.1998 for Link 5
                        maximum  head error  = 0.0000 for Link p-196

     5:30:00: Balanced after 3 trials
   
     5:35:00: Balancing the network:

              Trial  1: relative flow change = 0.028021
              Trial  2: relative flow change = 0.010881
              Trial  3: relative flow change = 0.000939
                        maximum  flow change = 0.8826 for Link PRV_inlet
                        maximum  head error  = 0.0000 for Link 5

     5:35:00: Balanced after 3 trials
   
     5:40:00: Balancing the network:

              Trial  1: relative flow change = 0.049442
              Trial  2: relative flow change = 0.005566
                        maximum  flow change = 4.8583 for Link 5
                        maximum  head error  = 0.0002 for Link 5

     5:40:00: Balanced after 2 trials
   
     5:45:00: Balancing the network:

              Trial  1: relative flow change = 0.082461
              Trial  2: relative flow change = 0.017519
              Trial  3: relative flow change = 0.001076
                        maximum  flow change = 1.0956 for Link 5
                        maximum  head error  = 0.0000 for Link 5

     5:45:00: Balanced after 3 trials
   
     5:50:00: Balancing the network:

              Trial  1: relative flow change = 0.055854
              Trial  2: relative flow change = 0.012370
              Trial  3: relative flow change = 0.000832
                        maximum  flow change = 0.9290 for Link 5
                        maximum  head error  = 0.0000 for Link 5

     5:50:00: Balanced after 3 trials
   
     5:55:00: Balancing the network:

              Trial  1: relative flow change = 0.044480
              Trial  2: relative flow change = 0.007323
                        maximum  flow change = 5.1093 for Link PRV_inlet
                        maximum  head error  = 0.0002 for Link 5

     5:55:00: Balanced after 2 trials
   
     6:00:00: Balancing the network:

              Trial  1: relative flow change = 0.053728
              Trial  2: relative flow change = 0.013680
              Trial  3: relative flow change = 0.000843
                        maximum  flow change = 0.9951 for Link PRV_inlet
                        maximum  head error  = 0.0000 for Link 5

     6:00:00: Balanced after 3 trials
   
     6:05:00: Balancing the network:

              Trial  1: relative flow change = 0.043655
              Trial  2: relative flow change = 0.010114
              Trial  3: relative flow change = 0.000630
                        maximum  flow change = 0.8548 for Link PRV_inlet
                        maximum  head error  = 0.0000 for Link 5

     6:05:00: Balanced after 3 trials
   
     6:10:00: Balancing the network:

              Trial  1: relative flow change = 0.056419
              Trial  2: relative flow change = 0.009484
                        maximum  flow change = 2.4824 for Link PRV_inlet
                        maximum  head error  = 0.0002 for Link p-729

     6:10:00: Balanced after 2 trials
   
     6:15:00: Balancing the network:

              Trial  1: relative flow change = 0.046717
              Trial  2: relative flow change = 0.002793
                        maximum  flow change = 0.5064 for Link PRV_inlet
                        maximum  head error  = 0.0002 for Link p-766

     6:15:00: Balanced after 2 trials
   
     6:20:00: Balancing the network:

              Trial  1: relative flow change = 0.049189
              Trial  2: relative flow change = 0.006695
                        maximum  flow change = 6.6107 for Link PRV_inlet
                        maximum  head error  = 0.0003 for Link 5

     6:20:00: Balanced after 2 trials
   
     6:25:00: Balancing the network:

              Trial  1: relative flow change = 0.035717
              Trial  2: relative flow change = 0.005592
                        maximum  flow change = 3.9340 for Link PRV_inlet
                        maximum  head error  = 0.0001 for Link 5

     6:25:00: Balanced after 2 trials
   
     6:30:00: Balancing the network:

              Trial  1: relative flow change = 0.033584
              Trial  2: relative flow change = 0.003682
                        maximum  flow change = 0.3082 for Link PRV_dist
                        maximum  head error  = 0.0005 for Link p-582

     6:30:00: Balanced after 2 trials
   
     6:35:00: Balancing the network:

              Trial  1: relative flow change = 0.042618
              Trial  2: relative flow change = 0.006986
                        maximum  flow change = 2.4464 for Link PRV_inlet
                        maximum  head error  = 0.0002 for Link p-582

     6:35:00: Balanced after 2 trials
     6:35:00: Tank T_Zone is emptying at 5.51 m
   
     6:40:00: Balancing the network:

              Trial  1: relative flow change = 0.071590
              Trial  2: relative flow change = 0.010176
              Trial  3: relative flow change = 0.000172
                        maximum  flow change = 0.1293 for Link PRV_inlet
                        maximum  head error  = 0.0000 for Link p-831

     6:40:00: Balanced after 3 trials
   
     6:45:00: Balancing the network:

              Trial  1: relative flow change = 0.041471
              Trial  2: relative flow change = 0.004879
                        maximum  flow change = 4.2646 for Link 5
                        maximum  head error  = 0.0001 for Link 5

     6:45:00: Balanced after 2 trials
   
     6:50:00: Balancing the network:

              Trial  1: relative flow change = 0.049636
              Trial  2: relative flow change = 0.015903
              Trial  3: relative flow change = 0.001089
                        maximum  flow change = 1.6220 for Link 5
                        maximum  head error  = 0.0000 for Link 5

     6:50:00: Balanced after 3 trials
   
     6:55:00: Balancing the network:

              Trial  1: relative flow change = 0.041139
              Trial  2: relative flow change = 0.009573
                        maximum  flow change = 1.1958 for Link PRV_inlet
                        maximum  head error  = 0.0003 for Link p-243

     6:55:00: Balanced after 2 trials
   
     7:00:00: Balancing the network:

              Trial  1: relative flow change = 0.039261
              Trial  2: relative flow change = 0.008012
                        maximum  flow change = 4.0904 for Link 5
                        maximum  head error  = 0.0001 for Link p-729

     7:00:00: Balanced after 2 trials
   
     7:05:00: Balancing the network:

              Trial  1: relative flow change = 0.060130
              Trial  2: relative flow change = 0.007747
                        maximum  flow change = 11.4830 for Link 5
                        maximum  head error  = 0.0008 for Link 5

     7:05:00: Balanced after 2 trials
   
     7:10:00: Balancing the network:

              Trial  1: relative flow change = 0.043277
              Trial  2: relative flow change = 0.003286
                        maximum  flow change = 1.9888 for Link 5
                        maximum  head error  = 0.0000 for Link p-547

     7:10:00: Balanced after 2 trials
   
     7:15:00: Balancing the network:

              Trial  1: relative flow change = 0.046620
              Trial  2: relative flow change = 0.006333
                        maximum  flow change = 5.1307 for Link PRV_inlet
                        maximum  head error  = 0.0002 for Link 5

     7:15:00: Balanced after 2 trials
   
     7:20:00: Balancing the network:

              Trial  1: relative flow change = 0.036902
              Trial  2: relative flow change = 0.003710
                        maximum  flow change = 3.0484 for Link 5
                        maximum  head error  = 0.0001 for Link 5

     7:20:00: Balanced after 2 trials
   
     7:25:00: Balancing the network:

              Trial  1: relative flow change = 0.035870
              Trial  2: relative flow change = 0.006402
                        maximum  flow change = 0.9224 for Link PRV_inlet
                        maximum  head error  = 0.0003 for Link p-901

     7:25:00: Balanced after 2 trials
   
     7:30:00: Balancing the network:

              Trial  1: relative flow change = 0.037490
              Trial  2: relative flow change = 0.010781
              Trial  3: relative flow change = 0.000650
                        maximum  flow change = 0.9860 for Link PRV_inlet
                        maximum  head error  = 0.0000 for Link 5

     7:30:00: Balanced after 3 trials
   
     7:35:00: Balancing the network:

              Trial  1: relative flow change = 0.036601
              Trial  2: relative flow change = 0.005307
                        maximum  flow change = 2.9302 for Link 5
                        maximum  head error  = 0.0001 for Link p-11

     7:35:00: Balanced after 2 trials
   
     7:40:00: Balancing the network:

              Trial  1: relative flow change = 0.026745
              Trial  2: relative flow change = 0.002613
                        maximum  flow change = 2.1060 for Link 5
                        maximum  head error  = 0.0000 for Link 5

     7:40:00: Balanced after 2 trials
   
     7:45:00: Balancing the network:

              Trial  1: relative flow change = 0.027521
              Trial  2: relative flow change = 0.005299
                        maximum  flow change = 0.6454 for Link PRV_dist
                        maximum  head error  = 0.0004 for Link p-831

     7:45:00: Balanced after 2 trials
   
     7:50:00: Balancing the network:

              Trial  1: relative flow change = 0.039809
              Trial  2: relative flow change = 0.004518
                        maximum  flow change = 5.8094 for Link 5
                        maximum  head error  = 0.0003 for Link p-831

     7:50:00: Balanced after 2 trials
   
     7:55:00: Balancing the network:

              Trial  1: relative flow change = 0.048580
              Trial  2: relative flow change = 0.008749
                        maximum  flow change = 6.7476 for Link PRV_inlet
                        maximum  head error  = 0.0003 for Link 5

     7:55:00: Balanced after 2 trials
   
     8:00:00: Balancing the network:

              Trial  1: relative flow change = 0.038923
              Trial  2: relative flow change = 0.010555
              Trial  3: relative flow change = 0.000697
                        maximum  flow change = 0.9336 for Link PRV_inlet
                        maximum  head error  = 0.0000 for Link p-831

     8:00:00: Balanced after 3 trials
   
     8:05:00: Balancing the network:

              Trial  1: relative flow change = 0.036274
              Trial  2: relative flow change = 0.008377
                        maximum  flow change = 1.0325 for Link PRV_dist
                        maximum  head error  = 0.0009 for Link p-831

     8:05:00: Balanced after 2 trials
   
     8:10:00: Balancing the network:

              Trial  1: relative flow change = 0.037850
              Trial  2: relative flow change = 0.006235
                        maximum  flow change = 4.9448 for Link 5
                        maximum  head error  = 0.0001 for Link 5

     8:10:00: Balanced after 2 trials
   
     8:15:00: Balancing the network:

              Trial  1: relative flow change = 0.058633
              Trial  2: relative flow change = 0.008020
                        maximum  flow change = 10.1506 for Link 5
                        maximum  head error  = 0.0006 for Link 5

     8:15:00: Balanced after 2 trials
   
     8:20:00: Balancing the network:

              Trial  1: relative flow change = 0.042388
              Trial  2: relative flow change = 0.011013
              Trial  3: relative flow change = 0.000798
                        maximum  flow change = 1.3163 for Link PRV_inlet
                        maximum  head error  = 0.0000 for Link 5

     8:20:00: Balanced after 3 trials
   
     8:25:00: Balancing the network:

              Trial  1: relative flow change = 0.039995
              Trial  2: relative flow change = 0.010627
              Trial  3: relative flow change = 0.000824
                        maximum  flow change = 1.2558 for Link 5
                        maximum  head error  = 0.0000 for Link 5

     8:25:00: Balanced after 3 trials
   
     8:30:00: Balancing the network:

              Trial  1: relative flow change = 0.035710
              Trial  2: relative flow change = 0.010172
              Trial  3: relative flow change = 0.000692
                        maximum  flow change = 1.1746 for Link 5
                        maximum  head error  = 0.0000 for Link 5

     8:30:00: Balanced after 3 trials
   
     8:35:00: Balancing the network:

              Trial  1: relative flow change = 0.043808
              Trial  2: relative flow change = 0.008793
                        maximum  flow change = 7.3707 for Link PRV_inlet
                        maximum  head error  = 0.0003 for Link 5

     8:35:00: Balanced after 2 trials
   
     8:40:00: Balancing the network:

              Trial  1: relative flow change = 0.045848
              Trial  2: relative flow change = 0.007453
                        maximum  flow change = 5.3606 for Link 5
                        maximum  head error  = 0.0002 for Link 5

     8:40:00: Balanced after 2 trials
   
     8:45:00: Balancing the network:

              Trial  1: relative flow change = 0.031985
              Trial  2: relative flow change = 0.007620
                        maximum  flow change = 0.9548 for Link p-1144
                        maximum  head error  = 0.0002 for Link p-11

     8:45:00: Balanced after 2 trials
   
     8:50:00: Balancing the network:

              Trial  1: relative flow change = 0.040368
              Trial  2: relative flow change = 0.004048
                        maximum  flow change = 3.4363 for Link 5
                        maximum  head error  = 0.0001 for Link 5

     8:50:00: Balanced after 2 trials
   
     8:55:00: Balancing the network:

              Trial  1: relative flow change = 0.067922
              Trial  2: relative flow change = 0.009233
                        maximum  flow change = 10.3677 for Link 5
                        maximum  head error  = 0.0006 for Link 5

     8:55:00: Balanced after 2 trials
   
     9:00:00: Balancing the network:

              Trial  1: relative flow change = 0.045880
              Trial  2: relative flow change = 0.004328
                        maximum  flow change = 2.3972 for Link PRV_inlet
                        maximum  head error  = 0.0002 for Link p-831

     9:00:00: Balanced after 2 trials
   
     9:05:00: Balancing the network:

              Trial  1: relative flow change = 0.049158
              Trial  2: relative flow change = 0.009482
                        maximum  flow change = 6.5050 for Link 5
                        maximum  head error  = 0.0002 for Link p-115

     9:05:00: Balanced after 2 trials
   
     9:10:00: Balancing the network:

              Trial  1: relative flow change = 0.039171
              Trial  2: relative flow change = 0.005622
                        maximum  flow change = 2.9766 for Link PRV_inlet
                        maximum  head error  = 0.0002 for Link p-582

     9:10:00: Balanced after 2 trials
   
     9:15:00: Balancing the network:

              Trial  1: relative flow change = 0.038978
              Trial  2: relative flow change = 0.004660
                        maximum  flow change = 5.5100 for Link PRV_inlet
                        maximum  head error  = 0.0002 for Link 5

     9:15:00: Balanced after 2 trials
   
     9:20:00: Balancing the network:

              Trial  1: relative flow change = 0.078267
              Trial  2: relative flow change = 0.017388
              Trial  3: relative flow change = 0.000892
                        maximum  flow change = 1.1799 for Link PRV_inlet
                        maximum  head error  = 0.0000 for Link p-582

     9:20:00: Balanced after 3 trials
   
     9:25:00: Balancing the network:

              Trial  1: relative flow change = 0.035128
              Trial  2: relative flow change = 0.017193
              Trial  3: relative flow change = 0.001688
                        maximum  flow change = 2.1531 for Link PRV_inlet
                        maximum  head error  = 0.0000 for Link 5

     9:25:00: Balanced after 3 trials
   
     9:30:00: Balancing the network:

              Trial  1: relative flow change = 0.054431
              Trial  2: relative flow change = 0.015377
              Trial  3: relative flow change = 0.000959
                        maximum  flow change = 1.2921 for Link PRV_inlet
                        maximum  head error  = 0.0000 for Link p-196

     9:30:00: Balanced after 3 trials
   
     9:35:00: Balancing the network:

              Trial  1: relative flow change = 0.058455
              Trial  2: relative flow change = 0.014254
              Trial  3: relative flow change = 0.000525
                        maximum  flow change = 0.8201 for Link 5
                        maximum  head error  = 0.0000 for Link 5

     9:35:00: Balanced after 3 trials
   
     9:40:00: Balancing the network:

              Trial  1: relative flow change = 0.034111
              Trial  2: relative flow change = 0.004182
                        maximum  flow change = 0.5292 for Link 5
                        maximum  head error  = 0.0003 for Link p-839

     9:40:00: Balanced after 2 trials
   
     9:45:00: Balancing the network:

              Trial  1: relative flow change = 0.037788
              Trial  2: relative flow change = 0.008086
                        maximum  flow change = 6.4346 for Link PRV_inlet
                        maximum  head error  = 0.0002 for Link 5

     9:45:00: Balanced after 2 trials
   
     9:50:00: Balancing the network:

              Trial  1: relative flow change = 0.042790
              Trial  2: relative flow change = 0.005676
                        maximum  flow change = 2.8072 for Link PRV_inlet
                        maximum  head error  = 0.0001 for Link p-11

     9:50:00: Balanced after 2 trials
   
     9:55:00: Balancing the network:

              Trial  1: relative flow change = 0.036988
              Trial  2: relative flow change = 0.012141
              Trial  3: relative flow change = 0.000705
                        maximum  flow change = 1.1321 for Link PRV_inlet
                        maximum  head error  = 0.0000 for Link 5

     9:55:00: Balanced after 3 trials
   
    10:00:00: Balancing the network:

              Trial  1: relative flow change = 0.038243
              Trial  2: relative flow change = 0.004105
                        maximum  flow change = 2.1868 for Link PRV_inlet
                        maximum  head error  = 0.0000 for Link p-766

    10:00:00: Balanced after 2 trials
   
    10:05:00: Balancing the network:

              Trial  1: relative flow change = 0.049863
              Trial  2: relative flow change = 0.011050
              Trial  3: relative flow change = 0.000685
                        maximum  flow change = 0.8847 for Link 5
                        maximum  head error  = 0.0000 for Link p-766

    10:05:00: Balanced after 3 trials
   
    10:10:00: Balancing the network:

              Trial  1: relative flow change = 0.050704
              Trial  2: relative flow change = 0.013645
              Trial  3: relative flow change = 0.000771
                        maximum  flow change = 1.2061 for Link PRV_inlet
                        maximum  head error  = 0.0000 for Link 5

    10:10:00: Balanced after 3 trials
   
    10:15:00: Balancing the network:

              Trial  1: relative flow change = 0.040988
              Trial  2: relative flow change = 0.012218
              Trial  3: relative flow change = 0.000908
                        maximum  flow change = 1.2915 for Link 5
                        maximum  head error  = 0.0000 for Link p-196

    10:15:00: Balanced after 3 trials
   
    10:20:00: Balancing the network:

              Trial  1: relative flow change = 0.040612
              Trial  2: relative flow change = 0.010830
              Trial  3: relative flow change = 0.000902
                        maximum  flow change = 1.2458 for Link PRV_inlet
                        maximum  head error  = 0.0000 for Link p-196

    10:20:00: Balanced after 3 trials
   
    10:25:00: Balancing the network:

              Trial  1: relative flow change = 0.063833
              Trial  2: relative flow change = 0.012223
              Trial  3: relative flow change = 0.000371
                        maximum  flow change = 0.5826 for Link 5
                        maximum  head error  = 0.0000 for Link 5

    10:25:00: Balanced after 3 trials
   
    10:30:00: Balancing the network:

              Trial  1: relative flow change = 0.048859
              Trial  2: relative flow change = 0.013922
              Trial  3: relative flow change = 0.000698
                        maximum  flow change = 1.0316 for Link 5
                        maximum  head error  = 0.0000 for Link 5

    10:30:00: Balanced after 3 trials
   
    10:35:00: Balancing the network:

              Trial  1: relative flow change = 0.037130
              Trial  2: relative flow change = 0.004078
                        maximum  flow change = 4.0212 for Link 5
                        maximum  head error  = 0.0001 for Link 5

    10:35:00: Balanced after 2 trials
   
    10:40:00: Balancing the network:

              Trial  1: relative flow change = 0.029875
              Trial  2: relative flow change = 0.007594
                        maximum  flow change = 0.8461 for Link p-1144
                        maximum  head error  = 0.0002 for Link p-11

    10:40:00: Balanced after 2 trials
   
    10:45:00: Balancing the network:

              Trial  1: relative flow change = 0.041844
              Trial  2: relative flow change = 0.006514
                        maximum  flow change = 5.0777 for Link 5
                        maximum  head error  = 0.0006 for Link p-582

    10:45:00: Balanced after 2 trials
   
    10:50:00: Balancing the network:

              Trial  1: relative flow change = 0.033390
              Trial  2: relative flow change = 0.008650
                        maximum  flow change = 0.9125 for Link PRV_dist
                        maximum  head error  = 0.0002 for Link p-766

    10:50:00: Balanced after 2 trials
   
    10:55:00: Balancing the network:

              Trial  1: relative flow change = 0.029952
              Trial  2: relative flow change = 0.009448
                        maximum  flow change = 1.4544 for Link 5
                        maximum  head error  = 0.0002 for Link p-11

    10:55:00: Balanced after 2 trials
   
    11:00:00: Balancing the network:

              Trial  1: relative flow change = 0.042170
              Trial  2: relative flow change = 0.003099
                        maximum  flow change = 0.3720 for Link 5
                        maximum  head error  = 0.0002 for Link p-547

    11:00:00: Balanced after 2 trials
   
    11:05:00: Balancing the network:

              Trial  1: relative flow change = 0.042096
              Trial  2: relative flow change = 0.013125
              Trial  3: relative flow change = 0.000876
                        maximum  flow change = 0.9915 for Link PRV_inlet
                        maximum  head error  = 0.0000 for Link p-196

    11:05:00: Balanced after 3 trials
   
    11:10:00: Balancing the network:

              Trial  1: relative flow change = 0.045433
              Trial  2: relative flow change = 0.006169
                        maximum  flow change = 7.3389 for Link 5
                        maximum  head error  = 0.0003 for Link 5

    11:10:00: Balanced after 2 trials
   
    11:15:00: Balancing the network:

              Trial  1: relative flow change = 0.050635
              Trial  2: relative flow change = 0.005676
                        maximum  flow change = 5.2046 for Link PRV_inlet
                        maximum  head error  = 0.0002 for Link 5

    11:15:00: Balanced after 2 trials
   
    11:20:00: Balancing the network:

              Trial  1: relative flow change = 0.044945
              Trial  2: relative flow change = 0.010229
              Trial  3: relative flow change = 0.000680
                        maximum  flow change = 0.8651 for Link 5
                        maximum  head error  = 0.0000 for Link 5

    11:20:00: Balanced after 3 trials
   
    11:25:00: Balancing the network:

              Trial  1: relative flow change = 0.048633
              Trial  2: relative flow change = 0.011462
              Trial  3: relative flow change = 0.000588
                        maximum  flow change = 0.7906 for Link 5
                        maximum  head error  = 0.0000 for Link 5

    11:25:00: Balanced after 3 trials
   
    11:30:00: Balancing the network:

              Trial  1: relative flow change = 0.036698
              Trial  2: relative flow change = 0.004936
                        maximum  flow change = 1.3024 for Link PRV_inlet
                        maximum  head error  = 0.0000 for Link p-243

    11:30:00: Balanced after 2 trials
   
    11:35:00: Balancing the network:

              Trial  1: relative flow change = 0.032113
              Trial  2: relative flow change = 0.004360
                        maximum  flow change = 2.3142 for Link PRV_inlet
                        maximum  head error  = 0.0005 for Link p-582

    11:35:00: Balanced after 2 trials
   
    11:40:00: Balancing the network:

              Trial  1: relative flow change = 0.072308
              Trial  2: relative flow change = 0.010498
              Trial  3: relative flow change = 0.000362
                        maximum  flow change = 0.3525 for Link 5
                        maximum  head error  = 0.0000 for Link p-115

    11:40:00: Balanced after 3 trials
   
    11:45:00: Balancing the network:

              Trial  1: relative flow change = 0.045538
              Trial  2: relative flow change = 0.014972
              Trial  3: relative flow change = 0.001065
                        maximum  flow change = 1.3002 for Link PRV_inlet
                        maximum  head error  = 0.0000 for Link 5

    11:45:00: Balanced after 3 trials
   
    11:50:00: Balancing the network:

              Trial  1: relative flow change = 0.043406
              Trial  2: relative flow change = 0.007020
                        maximum  flow change = 4.1285 for Link PRV_inlet
                        maximum  head error  = 0.0001 for Link p-1491

    11:50:00: Balanced after 2 trials
   
    11:55:00: Balancing the network:

              Trial  1: relative flow change = 0.037057
              Trial  2: relative flow change = 0.009508
                        maximum  flow change = 1.4508 for Link 5
                        maximum  head error  = 0.0004 for Link p-547

    11:55:00: Balanced after 2 trials
   
    12:00:00: Balancing the network:

              Trial  1: relative flow change = 0.044119
              Trial  2: relative flow change = 0.007851
                        maximum  flow change = 6.4434 for Link PRV_inlet
                        maximum  head error  = 0.0003 for Link p-196

    12:00:00: Balanced after 2 trials
   
    12:05:00: Balancing the network:

              Trial  1: relative flow change = 0.041643
              Trial  2: relative flow change = 0.010373
              Trial  3: relative flow change = 0.000562
                        maximum  flow change = 0.6776 for Link PRV_inlet
                        maximum  head error  = 0.0000 for Link p-582

    12:05:00: Balanced after 3 trials
   
    12:10:00: Balancing the network:

              Trial  1: relative flow change = 0.034954
              Trial  2: relative flow change = 0.003095
                        maximum  flow change = 2.7180 for Link PRV_inlet
                        maximum  head error  = 0.0000 for Link p-766

    12:10:00: Balanced after 2 trials
   
    12:15:00: Balancing the network:

              Trial  1: relative flow change = 0.074465
              Trial  2: relative flow change = 0.017588
              Trial  3: relative flow change = 0.000959
                        maximum  flow change = 1.0262 for Link 5
                        maximum  head error  = 0.0000 for Link p-243

    12:15:00: Balanced after 3 trials
   
    12:20:00: Balancing the network:

              Trial  1: relative flow change = 0.068593
              Trial  2: relative flow change = 0.011699
              Trial  3: relative flow change = 0.000238
                        maximum  flow change = 0.3152 for Link PRV_inlet
                        maximum  head error  = 0.0000 for Link 5

    12:20:00: Balanced after 3 trials
   
    12:25:00: Balancing the network:

              Trial  1: relative flow change = 0.028793
              Trial  2: relative flow change = 0.003828
                        maximum  flow change = 1.7352 for Link PRV_inlet
                        maximum  head error  = 0.0002 for Link p-831

    12:25:00: Balanced after 2 trials
   
    12:30:00: Balancing the network:

              Trial  1: relative flow change = 0.038937
              Trial  2: relative flow change = 0.007726
                        maximum  flow change = 4.9400 for Link 5
                        maximum  head error  = 0.0002 for Link p-831

    12:30:00: Balanced after 2 trials
   
    12:35:00: Balancing the network:

              Trial  1: relative flow change = 0.034419
              Trial  2: relative flow change = 0.012833
              Trial  3: relative flow change = 0.001195
                        maximum  flow change = 1.4109 for Link 5
                        maximum  head error  = 0.0000 for Link 5

    12:35:00: Balanced after 3 trials
   
    12:40:00: Balancing the network:

              Trial  1: relative flow change = 0.030820
              Trial  2: relative flow change = 0.001902
                        maximum  flow change = 0.4633 for Link PRV_inlet
                        maximum  head error  = 0.0001 for Link p-831

    12:40:00: Balanced after 2 trials
   
    12:45:00: Balancing the network:

              Trial  1: relative flow change = 0.047149
              Trial  2: relative flow change = 0.014676
              Trial  3: relative flow change = 0.001161
                        maximum  flow change = 1.2363 for Link 5
                        maximum  head error  = 0.0000 for Link 5

    12:45:00: Balanced after 3 trials
   
    12:50:00: Balancing the network:

              Trial  1: relative flow change = 0.033334
              Trial  2: relative flow change = 0.013034
              Trial  3: relative flow change = 0.000862
                        maximum  flow change = 1.0850 for Link 5
                        maximum  head error  = 0.0000 for Link 5

    12:50:00: Balanced after 3 trials
   
    12:55:00: Balancing the network:

              Trial  1: relative flow change = 0.060360
              Trial  2: relative flow change = 0.010553
              Trial  3: relative flow change = 0.000359
                        maximum  flow change = 0.3978 for Link PRV_inlet
                        maximum  head error  = 0.0000 for Link p-196

    12:55:00: Balanced after 3 trials
   
    13:00:00: Balancing the network:

              Trial  1: relative flow change = 0.071427
              Trial  2: relative flow change = 0.010772
              Trial  3: relative flow change = 0.000285
                        maximum  flow change = 0.3404 for Link 5
                        maximum  head error  = 0.0000 for Link 5

    13:00:00: Balanced after 3 trials
   
    13:05:00: Balancing the network:

              Trial  1: relative flow change = 0.031428
              Trial  2: relative flow change = 0.005406
                        maximum  flow change = 2.1986 for Link 5
                        maximum  head error  = 0.0001 for Link p-733

    13:05:00: Balanced after 2 trials
   
    13:10:00: Balancing the network:

              Trial  1: relative flow change = 0.033812
              Trial  2: relative flow change = 0.010016
              Trial  3: relative flow change = 0.000690
                        maximum  flow change = 0.8721 for Link 5
                        maximum  head error  = 0.0000 for Link p-196

    13:10:00: Balanced after 3 trials
   
    13:15:00: Balancing the network:

              Trial  1: relative flow change = 0.029828
              Trial  2: relative flow change = 0.006310
                        maximum  flow change = 2.6308 for Link 5
                        maximum  head error  = 0.0001 for Link p-582

    13:15:00: Balanced after 2 trials
   
    13:20:00: Balancing the network:

              Trial  1: relative flow change = 0.041532
              Trial  2: relative flow change = 0.003235
                        maximum  flow change = 1.7412 for Link PRV_inlet
                        maximum  head error  = 0.0001 for Link p-729

    13:20:00: Balanced after 2 trials
   
    13:25:00: Balancing the network:

              Trial  1: relative flow change = 0.037591
              Trial  2: relative flow change = 0.005588
                        maximum  flow change = 4.7332 for Link PRV_inlet
                        maximum  head error  = 0.0001 for Link 5

    13:25:00: Balanced after 2 trials
   
    13:30:00: Balancing the network:

              Trial  1: relative flow change = 0.037952
              Trial  2: relative flow change = 0.008801
                        maximum  flow change = 0.8786 for Link PRV_dist
                        maximum  head error  = 0.0002 for Link p-278

    13:30:00: Balanced after 2 trials
   
    13:35:00: Balancing the network:

              Trial  1: relative flow change = 0.058144
              Trial  2: relative flow change = 0.009248
                        maximum  flow change = 8.7448 for Link PRV_inlet
                        maximum  head error  = 0.0004 for Link 5

    13:35:00: Balanced after 2 trials
   
    13:40:00: Balancing the network:

              Trial  1: relative flow change = 0.037201
              Trial  2: relative flow change = 0.015745
              Trial  3: relative flow change = 0.001488
                        maximum  flow change = 1.5206 for Link 5
                        maximum  head error  = 0.0000 for Link 5

    13:40:00: Balanced after 3 trials
   
    13:45:00: Balancing the network:

              Trial  1: relative flow change = 0.037401
              Trial  2: relative flow change = 0.009258
                        maximum  flow change = 0.9056 for Link p-1144
                        maximum  head error  = 0.0002 for Link p-278

    13:45:00: Balanced after 2 trials
   
    13:50:00: Balancing the network:

              Trial  1: relative flow change = 0.038838
              Trial  2: relative flow change = 0.003505
                        maximum  flow change = 1.4067 for Link 5
                        maximum  head error  = 0.0000 for Link p-1674

    13:50:00: Balanced after 2 trials
   
    13:55:00: Balancing the network:

              Trial  1: relative flow change = 0.044161
              Trial  2: relative flow change = 0.006234
                        maximum  flow change = 6.1301 for Link PRV_inlet
                        maximum  head error  = 0.0002 for Link 5

    13:55:00: Balanced after 2 trials
   
    14:00:00: Balancing the network:

              Trial  1: relative flow change = 0.043944
              Trial  2: relative flow change = 0.005310
                        maximum  flow change = 3.6851 for Link PRV_inlet
                        maximum  head error  = 0.0005 for Link p-831

    14:00:00: Balanced after 2 trials
   
    14:05:00: Balancing the network:

              Trial  1: relative flow change = 0.037535
              Trial  2: relative flow change = 0.005826
                        maximum  flow change = 2.5415 for Link PRV_inlet
                        maximum  head error  = 0.0000 for Link 5

    14:05:00: Balanced after 2 trials
   
    14:10:00: Balancing the network:

              Trial  1: relative flow change = 0.041490
              Trial  2: relative flow change = 0.007913
                        maximum  flow change = 3.9516 for Link 5
                        maximum  head error  = 0.0003 for Link p-177

    14:10:00: Balanced after 2 trials
   
    14:15:00: Balancing the network:

              Trial  1: relative flow change = 0.058677
              Trial  2: relative flow change = 0.012917
              Trial  3: relative flow change = 0.000678
                        maximum  flow change = 0.8772 for Link 5
                        maximum  head error  = 0.0000 for Link 5

    14:15:00: Balanced after 3 trials
   
    14:20:00: Balancing the network:

              Trial  1: relative flow change = 0.041566
              Trial  2: relative flow change = 0.010970
              Trial  3: relative flow change = 0.000578
                        maximum  flow change = 0.7437 for Link PRV_inlet
                        maximum  head error  = 0.0000 for Link 5

    14:20:00: Balanced after 3 trials
   
    14:25:00: Balancing the network:

              Trial  1: relative flow change = 0.042112
              Trial  2: relative flow change = 0.005858
                        maximum  flow change = 2.0864 for Link PRV_inlet
                        maximum  head error  = 0.0000 for Link p-11

    14:25:00: Balanced after 2 trials
   
    14:30:00: Balancing the network:

              Trial  1: relative flow change = 0.045165
              Trial  2: relative flow change = 0.005278
                        maximum  flow change = 3.4495 for Link 5
                        maximum  head error  = 0.0001 for Link 5

    14:30:00: Balanced after 2 trials
   
    14:35:00: Balancing the network:

              Trial  1: relative flow change = 0.033132
              Trial  2: relative flow change = 0.008752
                        maximum  flow change = 2.7819 for Link PRV_inlet
                        maximum  head error  = 0.0001 for Link p-278

    14:35:00: Balanced after 2 trials
   
    14:40:00: Balancing the network:

              Trial  1: relative flow change = 0.045394
              Trial  2: relative flow change = 0.005831
                        maximum  flow change = 6.3579 for Link 5
                        maximum  head error  = 0.0002 for Link 5

    14:40:00: Balanced after 2 trials
   
    14:45:00: Balancing the network:

              Trial  1: relative flow change = 0.043285
              Trial  2: relative flow change = 0.011939
              Trial  3: relative flow change = 0.000773
                        maximum  flow change = 1.0149 for Link 5
                        maximum  head error  = 0.0000 for Link 5

    14:45:00: Balanced after 3 trials
   
    14:50:00: Balancing the network:

              Trial  1: relative flow change = 0.033646
              Trial  2: relative flow change = 0.007430
                        maximum  flow change = 0.6777 for Link PRV_dist
                        maximum  head error  = 0.0005 for Link p-582

    14:50:00: Balanced after 2 trials
   
    14:55:00: Balancing the network:

              Trial  1: relative flow change = 0.034292
              Trial  2: relative flow change = 0.013195
              Trial  3: relative flow change = 0.001114
                        maximum  flow change = 1.3463 for Link PRV_inlet
                        maximum  head error  = 0.0000 for Link 5

    14:55:00: Balanced after 3 trials
   
    15:00:00: Balancing the network:

              Trial  1: relative flow change = 0.035569
              Trial  2: relative flow change = 0.005240
                        maximum  flow change = 4.1620 for Link PRV_inlet
                        maximum  head error  = 0.0003 for Link p-948

    15:00:00: Balanced after 2 trials
   
    15:05:00: Balancing the network:

              Trial  1: relative flow change = 0.035227
              Trial  2: relative flow change = 0.012220
              Trial  3: relative flow change = 0.000771
                        maximum  flow change = 0.9978 for Link 5
                        maximum  head error  = 0.0000 for Link 5

    15:05:00: Balanced after 3 trials
   
    15:10:00: Balancing the network:

              Trial  1: relative flow change = 0.038776
              Trial  2: relative flow change = 0.011331
              Trial  3: relative flow change = 0.000836
                        maximum  flow change = 1.0644 for Link 5
                        maximum  head error  = 0.0000 for Link 5

    15:10:00: Balanced after 3 trials
   
    15:15:00: Balancing the network:

              Trial  1: relative flow change = 0.040639
              Trial  2: relative flow change = 0.007265
                        maximum  flow change = 0.5151 for Link PRV_dist
                        maximum  head error  = 0.0002 for Link p-248

    15:15:00: Balanced after 2 trials
   
    15:20:00: Balancing the network:

              Trial  1: relative flow change = 0.047549
              Trial  2: relative flow change = 0.007438
                        maximum  flow change = 1.2345 for Link PRV_inlet
                        maximum  head error  = 0.0001 for Link p-918

    15:20:00: Balanced after 2 trials
   
    15:25:00: Balancing the network:

              Trial  1: relative flow change = 0.062175
              Trial  2: relative flow change = 0.012681
              Trial  3: relative flow change = 0.000602
                        maximum  flow change = 0.8688 for Link 5
                        maximum  head error  = 0.0000 for Link 5

    15:25:00: Balanced after 3 trials
   
    15:30:00: Balancing the network:

              Trial  1: relative flow change = 0.035755
              Trial  2: relative flow change = 0.003391
                        maximum  flow change = 3.5819 for Link 5
                        maximum  head error  = 0.0001 for Link 5

    15:30:00: Balanced after 2 trials
   
    15:35:00: Balancing the network:

              Trial  1: relative flow change = 0.044441
              Trial  2: relative flow change = 0.025760
              Trial  3: relative flow change = 0.001976
                        maximum  flow change = 2.5134 for Link 5
                        maximum  head error  = 0.0001 for Link p-196

    15:35:00: Balanced after 3 trials
   
    15:40:00: Balancing the network:

              Trial  1: relative flow change = 0.067685
              Trial  2: relative flow change = 0.024614
              Trial  3: relative flow change = 0.001434
                        maximum  flow change = 1.6985 for Link 5
                        maximum  head error  = 0.0000 for Link p-196

    15:40:00: Balanced after 3 trials
   
    15:45:00: Balancing the network:

              Trial  1: relative flow change = 0.031529
              Trial  2: relative flow change = 0.009944
                        maximum  flow change = 0.9847 for Link PRV_dist
                        maximum  head error  = 0.0002 for Link p-11

    15:45:00: Balanced after 2 trials
   
    15:50:00: Balancing the network:

              Trial  1: relative flow change = 0.052105
              Trial  2: relative flow change = 0.009338
                        maximum  flow change = 7.7811 for Link PRV_inlet
                        maximum  head error  = 0.0004 for Link 5

    15:50:00: Balanced after 2 trials
   
    15:55:00: Balancing the network:

              Trial  1: relative flow change = 0.045276
              Trial  2: relative flow change = 0.005771
                        maximum  flow change = 1.7280 for Link PRV_inlet
                        maximum  head error  = 0.0001 for Link p-547

    15:55:00: Balanced after 2 trials
   
    16:00:00: Balancing the network:

              Trial  1: relative flow change = 0.037070
              Trial  2: relative flow change = 0.006190
                        maximum  flow change = 2.8729 for Link PRV_inlet
                        maximum  head error  = 0.0000 for Link 5

    16:00:00: Balanced after 2 trials
   
    16:05:00: Balancing the network:

              Trial  1: relative flow change = 0.048034
              Trial  2: relative flow change = 0.003297
                        maximum  flow change = 0.4174 for Link 5
                        maximum  head error  = 0.0003 for Link p-582

    16:05:00: Balanced after 2 trials
   
    16:10:00: Balancing the network:

              Trial  1: relative flow change = 0.057130
              Trial  2: relative flow change = 0.012659
              Trial  3: relative flow change = 0.000824
                        maximum  flow change = 0.9490 for Link PRV_inlet
                        maximum  head error  = 0.0000 for Link 5

    16:10:00: Balanced after 3 trials
   
    16:15:00: Balancing the network:

              Trial  1: relative flow change = 0.059394
              Trial  2: relative flow change = 0.018557
              Trial  3: relative flow change = 0.001101
                        maximum  flow change = 1.4607 for Link 5
                        maximum  head error  = 0.0000 for Link 5

    16:15:00: Balanced after 3 trials
   
    16:20:00: Balancing the network:

              Trial  1: relative flow change = 0.047660
              Trial  2: relative flow change = 0.008249
                        maximum  flow change = 3.0982 for Link PRV_inlet
                        maximum  head error  = 0.0001 for Link p-243

    16:20:00: Balanced after 2 trials
   
    16:25:00: Balancing the network:

              Trial  1: relative flow change = 0.037370
              Trial  2: relative flow change = 0.009368
                        maximum  flow change = 4.7206 for Link PRV_inlet
                        maximum  head error  = 0.0002 for Link p-831

    16:25:00: Balanced after 2 trials
   
    16:30:00: Balancing the network:

              Trial  1: relative flow change = 0.028992
              Trial  2: relative flow change = 0.002947
                        maximum  flow change = 0.9328 for Link 5
                        maximum  head error  = 0.0001 for Link p-582

    16:30:00: Balanced after 2 trials
   
    16:35:00: Balancing the network:

              Trial  1: relative flow change = 0.036245
              Trial  2: relative flow change = 0.012076
              Trial  3: relative flow change = 0.001039
                        maximum  flow change = 1.4077 for Link PRV_inlet
                        maximum  head error  = 0.0000 for Link 5

    16:35:00: Balanced after 3 trials
   
    16:40:00: Balancing the network:

              Trial  1: relative flow change = 0.052068
              Trial  2: relative flow change = 0.009801
                        maximum  flow change = 8.0643 for Link 5
                        maximum  head error  = 0.0004 for Link 5

    16:40:00: Balanced after 2 trials
   
    16:45:00: Balancing the network:

              Trial  1: relative flow change = 0.043161
              Trial  2: relative flow change = 0.005529
                        maximum  flow change = 6.1720 for Link PRV_inlet
                        maximum  head error  = 0.0002 for Link 5

    16:45:00: Balanced after 2 trials
   
    16:50:00: Balancing the network:

              Trial  1: relative flow change = 0.028153
              Trial  2: relative flow change = 0.003396
                        maximum  flow change = 1.1548 for Link PRV_inlet
                        maximum  head error  = 0.0001 for Link p-729

    16:50:00: Balanced after 2 trials
   
    16:55:00: Balancing the network:

              Trial  1: relative flow change = 0.047947
              Trial  2: relative flow change = 0.003376
                        maximum  flow change = 1.2660 for Link PRV_inlet
                        maximum  head error  = 0.0000 for Link p-413

    16:55:00: Balanced after 2 trials
   
    17:00:00: Balancing the network:

              Trial  1: relative flow change = 0.056007
              Trial  2: relative flow change = 0.010487
              Trial  3: relative flow change = 0.000438
                        maximum  flow change = 0.5618 for Link PRV_inlet
                        maximum  head error  = 0.0000 for Link 5

    17:00:00: Balanced after 3 trials
   
    17:05:00: Balancing the network:

              Trial  1: relative flow change = 0.044121
              Trial  2: relative flow change = 0.020849
              Trial  3: relative flow change = 0.001635
                        maximum  flow change = 2.1009 for Link 5
                        maximum  head error  = 0.0000 for Link 5

    17:05:00: Balanced after 3 trials
   
    17:10:00: Balancing the network:

              Trial  1: relative flow change = 0.059061
              Trial  2: relative flow change = 0.020318
              Trial  3: relative flow change = 0.001122
                        maximum  flow change = 1.5769 for Link PRV_inlet
                        maximum  head error  = 0.0000 for Link p-196

    17:10:00: Balanced after 3 trials
   
    17:15:00: Balancing the network:

              Trial  1: relative flow change = 0.063364
              Trial  2: relative flow change = 0.014114
              Trial  3: relative flow change = 0.000824
                        maximum  flow change = 1.0830 for Link 5
                        maximum  head error  = 0.0000 for Link p-196

    17:15:00: Balanced after 3 trials
   
    17:20:00: Balancing the network:

              Trial  1: relative flow change = 0.048473
              Trial  2: relative flow change = 0.003661
                        maximum  flow change = 0.8422 for Link PRV_inlet
                        maximum  head error  = 0.0000 for Link p-11

    17:20:00: Balanced after 2 trials
   
    17:25:00: Balancing the network:

              Trial  1: relative flow change = 0.047581
              Trial  2: relative flow change = 0.015326
              Trial  3: relative flow change = 0.000823
                        maximum  flow change = 1.1788 for Link 5
                        maximum  head error  = 0.0000 for Link p-196

    17:25:00: Balanced after 3 trials
   
    17:30:00: Balancing the network:

              Trial  1: relative flow change = 0.040594
              Trial  2: relative flow change = 0.004492
                        maximum  flow change = 5.1023 for Link PRV_inlet
                        maximum  head error  = 0.0002 for Link 5

    17:30:00: Balanced after 2 trials
   
    17:35:00: Balancing the network:

              Trial  1: relative flow change = 0.052371
              Trial  2: relative flow change = 0.014316
              Trial  3: relative flow change = 0.000842
                        maximum  flow change = 0.9265 for Link 5
                        maximum  head error  = 0.0000 for Link p-582

    17:35:00: Balanced after 3 trials
   
    17:40:00: Balancing the network:

              Trial  1: relative flow change = 0.040571
              Trial  2: relative flow change = 0.004423
                        maximum  flow change = 4.1232 for Link PRV_inlet
                        maximum  head error  = 0.0001 for Link 5

    17:40:00: Balanced after 2 trials
   
    17:45:00: Balancing the network:

              Trial  1: relative flow change = 0.047381
              Trial  2: relative flow change = 0.007724
                        maximum  flow change = 1.3103 for Link 5
                        maximum  head error  = 0.0001 for Link p-11

    17:45:00: Balanced after 2 trials
   
    17:50:00: Balancing the network:

              Trial  1: relative flow change = 0.040630
              Trial  2: relative flow change = 0.004522
                        maximum  flow change = 1.0287 for Link PRV_inlet
                        maximum  head error  = 0.0002 for Link p-733

    17:50:00: Balanced after 2 trials
   
    17:55:00: Balancing the network:

              Trial  1: relative flow change = 0.034747
              Trial  2: relative flow change = 0.009262
                        maximum  flow change = 3.2880 for Link PRV_inlet
                        maximum  head error  = 0.0001 for Link p-278

    17:55:00: Balanced after 2 trials
   
    18:00:00: Balancing the network:

              Trial  1: relative flow change = 0.069253
              Trial  2: relative flow change = 0.010390
              Trial  3: relative flow change = 0.000344
                        maximum  flow change = 0.5492 for Link PRV_inlet
                        maximum  head error  = 0.0000 for Link 5

    18:00:00: Balanced after 3 trials
   
    18:05:00: Balancing the network:

              Trial  1: relative flow change = 0.045231
              Trial  2: relative flow change = 0.002912
                        maximum  flow change = 3.0997 for Link PRV_inlet
                        maximum  head error  = 0.0001 for Link 5

    18:05:00: Balanced after 2 trials
   
    18:10:00: Balancing the network:

              Trial  1: relative flow change = 0.044914
              Trial  2: relative flow change = 0.003429
                        maximum  flow change = 1.5444 for Link 5
                        maximum  head error  = 0.0001 for Link p-243

    18:10:00: Balanced after 2 trials
   
    18:15:00: Balancing the network:

              Trial  1: relative flow change = 0.087021
              Trial  2: relative flow change = 0.020747
              Trial  3: relative flow change = 0.001059
                        maximum  flow change = 1.3774 for Link PRV_inlet
                        maximum  head error  = 0.0000 for Link 5

    18:15:00: Balanced after 3 trials
   
    18:20:00: Balancing the network:

              Trial  1: relative flow change = 0.048502
              Trial  2: relative flow change = 0.015504
              Trial  3: relative flow change = 0.001116
                        maximum  flow change = 1.4135 for Link PRV_inlet
                        maximum  head error  = 0.0000 for Link p-196

    18:20:00: Balanced after 3 trials
   
    18:25:00: Balancing the network:

              Trial  1: relative flow change = 0.036285
              Trial  2: relative flow change = 0.009271
                        maximum  flow change = 2.7760 for Link 5
                        maximum  head error  = 0.0009 for Link p-831

    18:25:00: Balanced after 2 trials
   
    18:30:00: Balancing the network:

              Trial  1: relative flow change = 0.031894
              Trial  2: relative flow change = 0.006915
                        maximum  flow change = 0.7172 for Link PRV_dist
                        maximum  head error  = 0.0001 for Link p-11

    18:30:00: Balanced after 2 trials
   
    18:35:00: Balancing the network:

              Trial  1: relative flow change = 0.032193
              Trial  2: relative flow change = 0.004026
                        maximum  flow change = 0.6050 for Link PRV_inlet
                        maximum  head error  = 0.0003 for Link p-547

    18:35:00: Balanced after 2 trials
   
    18:40:00: Balancing the network:

              Trial  1: relative flow change = 0.073345
              Trial  2: relative flow change = 0.009788
                        maximum  flow change = 11.3208 for Link 5
                        maximum  head error  = 0.0007 for Link 5

    18:40:00: Balanced after 2 trials
   
    18:45:00: Balancing the network:

[...]
   
   211:30:00: Balancing the network:

              Trial  1: relative flow change = 0.034608
              Trial  2: relative flow change = 0.006502
                        maximum  flow change = 3.2413 for Link 5
                        maximum  head error  = 0.0002 for Link p-115

   211:30:00: Balanced after 2 trials
   
   211:35:00: Balancing the network:

              Trial  1: relative flow change = 0.038494
              Trial  2: relative flow change = 0.009929
                        maximum  flow change = 3.9411 for Link 5
                        maximum  head error  = 0.0002 for Link p-831

   211:35:00: Balanced after 2 trials
   
   211:40:00: Balancing the network:

              Trial  1: relative flow change = 0.040828
              Trial  2: relative flow change = 0.004455
                        maximum  flow change = 2.1586 for Link PRV_inlet
                        maximum  head error  = 0.0001 for Link p-115

   211:40:00: Balanced after 2 trials
   
   211:45:00: Balancing the network:

              Trial  1: relative flow change = 0.037923
              Trial  2: relative flow change = 0.015415
              Trial  3: relative flow change = 0.001233
                        maximum  flow change = 1.3975 for Link 5
                        maximum  head error  = 0.0001 for Link p-547

   211:45:00: Balanced after 3 trials
   
   211:50:00: Balancing the network:

              Trial  1: relative flow change = 0.029319
              Trial  2: relative flow change = 0.009015
                        maximum  flow change = 1.8861 for Link 5
                        maximum  head error  = 0.0002 for Link p-243

   211:50:00: Balanced after 2 trials
   
   211:55:00: Balancing the network:

              Trial  1: relative flow change = 0.034839
              Trial  2: relative flow change = 0.005530
                        maximum  flow change = 0.6198 for Link p-1144
                        maximum  head error  = 0.0001 for Link p-11

   211:55:00: Balanced after 2 trials
   
   212:00:00: Balancing the network:

              Trial  1: relative flow change = 0.044583
              Trial  2: relative flow change = 0.009132
                        maximum  flow change = 5.6145 for Link PRV_inlet
                        maximum  head error  = 0.0002 for Link 5

   212:00:00: Balanced after 2 trials
   
   212:05:00: Balancing the network:

              Trial  1: relative flow change = 0.030136
              Trial  2: relative flow change = 0.001545
                        maximum  flow change = 0.5141 for Link 5
                        maximum  head error  = 0.0000 for Link p-124

   212:05:00: Balanced after 2 trials
   
   212:10:00: Balancing the network:

              Trial  1: relative flow change = 0.034797
              Trial  2: relative flow change = 0.010019
              Trial  3: relative flow change = 0.000595
                        maximum  flow change = 0.8282 for Link PRV_inlet
                        maximum  head error  = 0.0000 for Link 5

   212:10:00: Balanced after 3 trials
   
   212:15:00: Balancing the network:

              Trial  1: relative flow change = 0.047066
              Trial  2: relative flow change = 0.005976
                        maximum  flow change = 2.4967 for Link PRV_inlet
                        maximum  head error  = 0.0002 for Link p-901

   212:15:00: Balanced after 2 trials
   
   212:20:00: Balancing the network:

              Trial  1: relative flow change = 0.033492
              Trial  2: relative flow change = 0.019803
              Trial  3: relative flow change = 0.001612
                        maximum  flow change = 2.0507 for Link PRV_inlet
                        maximum  head error  = 0.0001 for Link p-196

   212:20:00: Balanced after 3 trials
   
   212:25:00: Balancing the network:

              Trial  1: relative flow change = 0.062876
              Trial  2: relative flow change = 0.012696
              Trial  3: relative flow change = 0.000553
                        maximum  flow change = 0.6775 for Link 5
                        maximum  head error  = 0.0000 for Link 5

   212:25:00: Balanced after 3 trials
   
   212:30:00: Balancing the network:

              Trial  1: relative flow change = 0.043048
              Trial  2: relative flow change = 0.007873
                        maximum  flow change = 7.6283 for Link PRV_inlet
                        maximum  head error  = 0.0003 for Link 5

   212:30:00: Balanced after 2 trials
   
   212:35:00: Balancing the network:

              Trial  1: relative flow change = 0.035133
              Trial  2: relative flow change = 0.005825
                        maximum  flow change = 4.4602 for Link PRV_inlet
                        maximum  head error  = 0.0002 for Link p-733

   212:35:00: Balanced after 2 trials
   
   212:40:00: Balancing the network:

              Trial  1: relative flow change = 0.045973
              Trial  2: relative flow change = 0.007749
                        maximum  flow change = 3.3203 for Link PRV_inlet
                        maximum  head error  = 0.0002 for Link p-324

   212:40:00: Balanced after 2 trials
   
   212:45:00: Balancing the network:

              Trial  1: relative flow change = 0.042431
              Trial  2: relative flow change = 0.006798
                        maximum  flow change = 6.1348 for Link 5
                        maximum  head error  = 0.0002 for Link 5

   212:45:00: Balanced after 2 trials
   
   212:50:00: Balancing the network:

              Trial  1: relative flow change = 0.043790
              Trial  2: relative flow change = 0.016886
              Trial  3: relative flow change = 0.001345
                        maximum  flow change = 1.5055 for Link PRV_inlet
                        maximum  head error  = 0.0000 for Link p-188

   212:50:00: Balanced after 3 trials
   
   212:55:00: Balancing the network:

              Trial  1: relative flow change = 0.038289
              Trial  2: relative flow change = 0.010270
              Trial  3: relative flow change = 0.000552
                        maximum  flow change = 0.7346 for Link 5
                        maximum  head error  = 0.0000 for Link 5

   212:55:00: Balanced after 3 trials
   
   213:00:00: Balancing the network:

              Trial  1: relative flow change = 0.041731
              Trial  2: relative flow change = 0.009735
                        maximum  flow change = 3.1217 for Link PRV_inlet
                        maximum  head error  = 0.0002 for Link p-11

   213:00:00: Balanced after 2 trials
   
   213:05:00: Balancing the network:

              Trial  1: relative flow change = 0.056445
              Trial  2: relative flow change = 0.013960
              Trial  3: relative flow change = 0.000752
                        maximum  flow change = 0.7269 for Link 5
                        maximum  head error  = 0.0000 for Link p-831

   213:05:00: Balanced after 3 trials
   
   213:10:00: Balancing the network:

              Trial  1: relative flow change = 0.032915
              Trial  2: relative flow change = 0.002995
                        maximum  flow change = 0.8806 for Link PRV_inlet
                        maximum  head error  = 0.0003 for Link p-831

   213:10:00: Balanced after 2 trials
   
   213:15:00: Balancing the network:

              Trial  1: relative flow change = 0.036515
              Trial  2: relative flow change = 0.009026
                        maximum  flow change = 1.9118 for Link PRV_inlet
                        maximum  head error  = 0.0005 for Link p-124

   213:15:00: Balanced after 2 trials
   
   213:20:00: Balancing the network:

              Trial  1: relative flow change = 0.037681
              Trial  2: relative flow change = 0.007583
                        maximum  flow change = 0.6063 for Link PRV_dist
                        maximum  head error  = 0.0003 for Link p-766

   213:20:00: Balanced after 2 trials
   
   213:25:00: Balancing the network:

              Trial  1: relative flow change = 0.031912
              Trial  2: relative flow change = 0.004339
                        maximum  flow change = 0.8757 for Link 5
                        maximum  head error  = 0.0000 for Link p-766

   213:25:00: Balanced after 2 trials
   
   213:30:00: Balancing the network:

              Trial  1: relative flow change = 0.041112
              Trial  2: relative flow change = 0.003539
                        maximum  flow change = 3.1219 for Link 5
                        maximum  head error  = 0.0001 for Link 5

   213:30:00: Balanced after 2 trials
   
   213:35:00: Balancing the network:

              Trial  1: relative flow change = 0.052539
              Trial  2: relative flow change = 0.006230
                        maximum  flow change = 5.7430 for Link 5
                        maximum  head error  = 0.0002 for Link 5

   213:35:00: Balanced after 2 trials
   
   213:40:00: Balancing the network:

              Trial  1: relative flow change = 0.034492
              Trial  2: relative flow change = 0.004659
                        maximum  flow change = 0.9530 for Link 5
                        maximum  head error  = 0.0000 for Link p-11

   213:40:00: Balanced after 2 trials
   
   213:45:00: Balancing the network:

              Trial  1: relative flow change = 0.080683
              Trial  2: relative flow change = 0.013725
              Trial  3: relative flow change = 0.000373
                        maximum  flow change = 0.4442 for Link 5
                        maximum  head error  = 0.0000 for Link 5

   213:45:00: Balanced after 3 trials
   
   213:50:00: Balancing the network:

              Trial  1: relative flow change = 0.042482
              Trial  2: relative flow change = 0.011434
              Trial  3: relative flow change = 0.000991
                        maximum  flow change = 1.1111 for Link 5
                        maximum  head error  = 0.0000 for Link p-196

   213:50:00: Balanced after 3 trials
   
   213:55:00: Balancing the network:

              Trial  1: relative flow change = 0.075414
              Trial  2: relative flow change = 0.015694
              Trial  3: relative flow change = 0.000757
                        maximum  flow change = 0.7011 for Link PRV_inlet
                        maximum  head error  = 0.0000 for Link 5

   213:55:00: Balanced after 3 trials
   213:55:00: Tank T_Zone is filling at 4.78 m
   
   214:00:00: Balancing the network:

              Trial  1: relative flow change = 0.036652
              Trial  2: relative flow change = 0.005181
                        maximum  flow change = 0.8441 for Link 5
                        maximum  head error  = 0.0001 for Link p-789

   214:00:00: Balanced after 2 trials
   214:00:00: Tank T_Zone is emptying at 4.78 m
   
   214:05:00: Balancing the network:

              Trial  1: relative flow change = 0.055338
              Trial  2: relative flow change = 0.009830
                        maximum  flow change = 5.5220 for Link PRV_inlet
                        maximum  head error  = 0.0003 for Link p-948

   214:05:00: Balanced after 2 trials
   214:05:00: Tank T_Zone is filling at 4.78 m
   
   214:10:00: Balancing the network:

              Trial  1: relative flow change = 0.035531
              Trial  2: relative flow change = 0.014048
              Trial  3: relative flow change = 0.001252
                        maximum  flow change = 1.0699 for Link PRV_inlet
                        maximum  head error  = 0.0000 for Link 5

   214:10:00: Balanced after 3 trials
   
   214:15:00: Balancing the network:

              Trial  1: relative flow change = 0.039728
              Trial  2: relative flow change = 0.005735
                        maximum  flow change = 0.3644 for Link p-1144
                        maximum  head error  = 0.0002 for Link p-831

   214:15:00: Balanced after 2 trials
   
   214:20:00: Balancing the network:

              Trial  1: relative flow change = 0.034662
              Trial  2: relative flow change = 0.012099
              Trial  3: relative flow change = 0.000857
                        maximum  flow change = 0.8456 for Link 5
                        maximum  head error  = 0.0000 for Link 5

   214:20:00: Balanced after 3 trials
   
   214:25:00: Balancing the network:

              Trial  1: relative flow change = 0.037979
              Trial  2: relative flow change = 0.008739
                        maximum  flow change = 2.0595 for Link 5
                        maximum  head error  = 0.0001 for Link p-11

   214:25:00: Balanced after 2 trials
   
   214:30:00: Balancing the network:

              Trial  1: relative flow change = 0.047506
              Trial  2: relative flow change = 0.007139
                        maximum  flow change = 4.8330 for Link PRV_inlet
                        maximum  head error  = 0.0001 for Link 5

   214:30:00: Balanced after 2 trials
   
   214:35:00: Balancing the network:

              Trial  1: relative flow change = 0.034498
              Trial  2: relative flow change = 0.004319
                        maximum  flow change = 1.9525 for Link 5
                        maximum  head error  = 0.0000 for Link p-124

   214:35:00: Balanced after 2 trials
   
   214:40:00: Balancing the network:

              Trial  1: relative flow change = 0.058676
              Trial  2: relative flow change = 0.012437
              Trial  3: relative flow change = 0.000974
                        maximum  flow change = 0.5107 for Link PRV_inlet
                        maximum  head error  = 0.0000 for Link p-243

   214:40:00: Balanced after 3 trials
   
   214:45:00: Balancing the network:

              Trial  1: relative flow change = 0.060451
              Trial  2: relative flow change = 0.017236
              Trial  3: relative flow change = 0.001219
                        maximum  flow change = 0.9278 for Link PRV_inlet
                        maximum  head error  = 0.0000 for Link 5

   214:45:00: Balanced after 3 trials
   
   214:50:00: Balancing the network:

              Trial  1: relative flow change = 0.039649
              Trial  2: relative flow change = 0.012891
              Trial  3: relative flow change = 0.000926
                        maximum  flow change = 0.7794 for Link PRV_inlet
                        maximum  head error  = 0.0000 for Link p-115

   214:50:00: Balanced after 3 trials
   
   214:55:00: Balancing the network:

              Trial  1: relative flow change = 0.048365
              Trial  2: relative flow change = 0.007686
                        maximum  flow change = 6.4206 for Link PRV_inlet
                        maximum  head error  = 0.0003 for Link 5

   214:55:00: Balanced after 2 trials
   
   215:00:00: Balancing the network:

              Trial  1: relative flow change = 0.032591
              Trial  2: relative flow change = 0.002643
                        maximum  flow change = 0.4450 for Link 5
                        maximum  head error  = 0.0001 for Link p-839

   215:00:00: Balanced after 2 trials
   
   215:05:00: Balancing the network:

              Trial  1: relative flow change = 0.044390
              Trial  2: relative flow change = 0.003293
                        maximum  flow change = 0.6790 for Link 5
                        maximum  head error  = 0.0001 for Link p-582

   215:05:00: Balanced after 2 trials
   
   215:10:00: Balancing the network:

              Trial  1: relative flow change = 0.039354
              Trial  2: relative flow change = 0.008947
                        maximum  flow change = 3.1700 for Link PRV_inlet
                        maximum  head error  = 0.0001 for Link 5

   215:10:00: Balanced after 2 trials
   
   215:15:00: Balancing the network:

              Trial  1: relative flow change = 0.056325
              Trial  2: relative flow change = 0.008421
                        maximum  flow change = 6.9106 for Link PRV_inlet
                        maximum  head error  = 0.0003 for Link 5

   215:15:00: Balanced after 2 trials
   
   215:20:00: Balancing the network:

              Trial  1: relative flow change = 0.095028
              Trial  2: relative flow change = 0.019122
              Trial  3: relative flow change = 0.000806
                        maximum  flow change = 0.4784 for Link 5
                        maximum  head error  = 0.0000 for Link p-582

   215:20:00: Balanced after 3 trials
   
   215:25:00: Balancing the network:

              Trial  1: relative flow change = 0.036812
              Trial  2: relative flow change = 0.004808
                        maximum  flow change = 1.9541 for Link 5
                        maximum  head error  = 0.0000 for Link p-879

   215:25:00: Balanced after 2 trials
   
   215:30:00: Balancing the network:

              Trial  1: relative flow change = 0.039936
              Trial  2: relative flow change = 0.009208
                        maximum  flow change = 3.0180 for Link PRV_inlet
                        maximum  head error  = 0.0001 for Link p-11

   215:30:00: Balanced after 2 trials
   
   215:35:00: Balancing the network:

              Trial  1: relative flow change = 0.065029
              Trial  2: relative flow change = 0.010854
              Trial  3: relative flow change = 0.000267
                        maximum  flow change = 0.1675 for Link 5
                        maximum  head error  = 0.0000 for Link p-547

   215:35:00: Balanced after 3 trials
   
   215:40:00: Balancing the network:

              Trial  1: relative flow change = 0.040802
              Trial  2: relative flow change = 0.006388
                        maximum  flow change = 3.5593 for Link 5
                        maximum  head error  = 0.0001 for Link 5

   215:40:00: Balanced after 2 trials
   
   215:45:00: Balancing the network:

              Trial  1: relative flow change = 0.027444
              Trial  2: relative flow change = 0.005117
                        maximum  flow change = 1.2471 for Link 5
                        maximum  head error  = 0.0000 for Link p-831

   215:45:00: Balanced after 2 trials
   
   215:50:00: Balancing the network:

              Trial  1: relative flow change = 0.039344
              Trial  2: relative flow change = 0.006482
                        maximum  flow change = 3.1069 for Link PRV_inlet
                        maximum  head error  = 0.0003 for Link p-582

   215:50:00: Balanced after 2 trials
   
   215:55:00: Balancing the network:

              Trial  1: relative flow change = 0.030567
              Trial  2: relative flow change = 0.007497
                        maximum  flow change = 0.9406 for Link PRV_inlet
                        maximum  head error  = 0.0000 for Link p-11

   215:55:00: Balanced after 2 trials
   
   216:00:00: Balancing the network:

              Trial  1: relative flow change = 0.033942
              Trial  2: relative flow change = 0.003085
                        maximum  flow change = 0.8129 for Link PRV_inlet
                        maximum  head error  = 0.0000 for Link p-766

   216:00:00: Balanced after 2 trials
   
  Hydraulic Flow Balance (m3/h)
  ================================
  Total Inflow:           380.000
  Consumer Demand:        381.840
  Demand Deficit:           0.000
  Emitter Flow:             0.000
  Leakage Flow:             0.000
  Total Outflow:          381.840
  Storage Flow:            -1.830
  Flow Ratio:               1.000
  ================================

  Water Quality Mass Balance (mg)
  ================================
  Initial Mass:       0.00000e+00
  Mass Inflow:        4.92486e+07
  Mass Outflow:       8.47948e+06
  Mass Reacted:       3.84058e+07
  Final Mass:         2.36363e+06
  Mass Ratio:         1.00001
  Total Segments:     878
  ================================

  Analysis ended Tue Apr 21 09:41:55 2026
