  Page 1                                    Tue Apr 21 09:29:51 2026

  ******************************************************************
  *                           E P A N E T                          *
  *                   Hydraulic and Water Quality                  *
  *                   Analysis for Pipe Networks                   *
  *                          Version 2.3.04                        *
  ******************************************************************
  
  Processing MSX input file CY-DBP_competition_stream_competition_6days_9.msx
  
  Analysis begun Tue Apr 21 09:29:52 2026

   
  Hydraulic Status:
  -----------------------------------------------------------------------
     0:00:00: Balancing the network:

              Trial  1: relative flow change = 1.832580
              PRV PRV_inlet switched from active to closed
              Trial  2: relative flow change = 0.483511
              PRV PRV_dist switched from active to open
              PRV PRV_inlet switched from closed to active
              Trial  3: relative flow change = 0.391168
              PRV PRV_dist switched from open to active
              Trial  4: relative flow change = 0.211635
              Trial  5: relative flow change = 0.053588
              Trial  6: relative flow change = 0.015105
              Trial  7: relative flow change = 0.001565
                        maximum  flow change = 0.1691 for Link p-488
                        maximum  head error  = 0.0000 for Link p-488

     0:00:00: Balanced after 7 trials
     0:00:00: Reservoir WTP is emptying
     0:00:00: Tank T_Zone is filling at 5.00 m
   
     0:05:00: Balancing the network:

              Trial  1: relative flow change = 0.061158
              Trial  2: relative flow change = 0.020562
              Trial  3: relative flow change = 0.001386
                        maximum  flow change = 1.0042 for Link PRV_inlet
                        maximum  head error  = 0.0000 for Link p-766

     0:05:00: Balanced after 3 trials
   
     0:10:00: Balancing the network:

              Trial  1: relative flow change = 0.037380
              Trial  2: relative flow change = 0.003047
                        maximum  flow change = 0.4964 for Link 5
                        maximum  head error  = 0.0001 for Link p-973

     0:10:00: Balanced after 2 trials
   
     0:15:00: Balancing the network:

              Trial  1: relative flow change = 0.036562
              Trial  2: relative flow change = 0.011459
              Trial  3: relative flow change = 0.000846
                        maximum  flow change = 0.6480 for Link 5
                        maximum  head error  = 0.0000 for Link p-196

     0:15:00: Balanced after 3 trials
   
     0:20:00: Balancing the network:

              Trial  1: relative flow change = 0.042290
              Trial  2: relative flow change = 0.008625
                        maximum  flow change = 1.7596 for Link PRV_inlet
                        maximum  head error  = 0.0001 for Link p-11

     0:20:00: Balanced after 2 trials
   
     0:25:00: Balancing the network:

              Trial  1: relative flow change = 0.041286
              Trial  2: relative flow change = 0.018103
              Trial  3: relative flow change = 0.001554
                        maximum  flow change = 0.9998 for Link 5
                        maximum  head error  = 0.0001 for Link p-196

     0:25:00: Balanced after 3 trials
   
     0:30:00: Balancing the network:

              Trial  1: relative flow change = 0.031983
              Trial  2: relative flow change = 0.003291
                        maximum  flow change = 1.1956 for Link 5
                        maximum  head error  = 0.0000 for Link p-973

     0:30:00: Balanced after 2 trials
   
     0:35:00: Balancing the network:

              Trial  1: relative flow change = 0.033385
              Trial  2: relative flow change = 0.004179
                        maximum  flow change = 1.6215 for Link PRV_inlet
                        maximum  head error  = 0.0001 for Link p-948

     0:35:00: Balanced after 2 trials
   
     0:40:00: Balancing the network:

              Trial  1: relative flow change = 0.038129
              Trial  2: relative flow change = 0.004411
                        maximum  flow change = 1.9531 for Link 5
                        maximum  head error  = 0.0000 for Link 5

     0:40:00: Balanced after 2 trials
   
     0:45:00: Balancing the network:

              Trial  1: relative flow change = 0.027471
              Trial  2: relative flow change = 0.003424
                        maximum  flow change = 0.8286 for Link PRV_inlet
                        maximum  head error  = 0.0000 for Link p-278

     0:45:00: Balanced after 2 trials
   
     0:50:00: Balancing the network:

              Trial  1: relative flow change = 0.036793
              Trial  2: relative flow change = 0.012386
              Trial  3: relative flow change = 0.001115
                        maximum  flow change = 0.8431 for Link 5
                        maximum  head error  = 0.0000 for Link 5

     0:50:00: Balanced after 3 trials
   
     0:55:00: Balancing the network:

              Trial  1: relative flow change = 0.048139
              Trial  2: relative flow change = 0.021258
              Trial  3: relative flow change = 0.001633
                        maximum  flow change = 1.0496 for Link PRV_inlet
                        maximum  head error  = 0.0000 for Link p-729

     0:55:00: Balanced after 3 trials
   
     1:00:00: Balancing the network:

              Trial  1: relative flow change = 0.041674
              Trial  2: relative flow change = 0.005194
                        maximum  flow change = 2.2379 for Link 5
                        maximum  head error  = 0.0001 for Link p-547

     1:00:00: Balanced after 2 trials
   
     1:05:00: Balancing the network:

              Trial  1: relative flow change = 0.038494
              Trial  2: relative flow change = 0.003756
                        maximum  flow change = 0.8803 for Link PRV_inlet
                        maximum  head error  = 0.0000 for Link p-547

     1:05:00: Balanced after 2 trials
   
     1:10:00: Balancing the network:

              Trial  1: relative flow change = 0.071756
              Trial  2: relative flow change = 0.037634
              Trial  3: relative flow change = 0.004279
                        maximum  flow change = 2.3724 for Link 5
                        maximum  head error  = 0.0001 for Link p-188

     1:10:00: Balanced after 3 trials
   
     1:15:00: Balancing the network:

              Trial  1: relative flow change = 0.037113
              Trial  2: relative flow change = 0.036511
              Trial  3: relative flow change = 0.003868
                        maximum  flow change = 2.2124 for Link 5
                        maximum  head error  = 0.0000 for Link p-226

     1:15:00: Balanced after 3 trials
   
     1:20:00: Balancing the network:

              Trial  1: relative flow change = 0.038790
              Trial  2: relative flow change = 0.005822
                        maximum  flow change = 1.6944 for Link 5
                        maximum  head error  = 0.0004 for Link p-831

     1:20:00: Balanced after 2 trials
   
     1:25:00: Balancing the network:

              Trial  1: relative flow change = 0.068683
              Trial  2: relative flow change = 0.025191
              Trial  3: relative flow change = 0.002825
                        maximum  flow change = 1.2343 for Link 5
                        maximum  head error  = 0.0000 for Link p-461

     1:25:00: Balanced after 3 trials
   
     1:30:00: Balancing the network:

              Trial  1: relative flow change = 0.038583
              Trial  2: relative flow change = 0.017016
              Trial  3: relative flow change = 0.001252
                        maximum  flow change = 0.8257 for Link 5
                        maximum  head error  = 0.0000 for Link 5

     1:30:00: Balanced after 3 trials
   
     1:35:00: Balancing the network:

              Trial  1: relative flow change = 0.034842
              Trial  2: relative flow change = 0.010486
              Trial  3: relative flow change = 0.000997
                        maximum  flow change = 0.5526 for Link 5
                        maximum  head error  = 0.0000 for Link p-196

     1:35:00: Balanced after 3 trials
   
     1:40:00: Balancing the network:

              Trial  1: relative flow change = 0.041288
              Trial  2: relative flow change = 0.005486
                        maximum  flow change = 3.2892 for Link 5
                        maximum  head error  = 0.0001 for Link 5

     1:40:00: Balanced after 2 trials
   
     1:45:00: Balancing the network:

              Trial  1: relative flow change = 0.041646
              Trial  2: relative flow change = 0.006839
                        maximum  flow change = 3.3202 for Link 5
                        maximum  head error  = 0.0001 for Link 5

     1:45:00: Balanced after 2 trials
   
     1:50:00: Balancing the network:

              Trial  1: relative flow change = 0.040160
              Trial  2: relative flow change = 0.009420
                        maximum  flow change = 4.4717 for Link PRV_inlet
                        maximum  head error  = 0.0001 for Link 5

     1:50:00: Balanced after 2 trials
   
     1:55:00: Balancing the network:

              Trial  1: relative flow change = 0.030217
              Trial  2: relative flow change = 0.008320
                        maximum  flow change = 0.5058 for Link PRV_inlet
                        maximum  head error  = 0.0003 for Link p-582

     1:55:00: Balanced after 2 trials
   
     2:00:00: Balancing the network:

              Trial  1: relative flow change = 0.036332
              Trial  2: relative flow change = 0.005925
                        maximum  flow change = 2.2830 for Link PRV_inlet
                        maximum  head error  = 0.0002 for Link p-831

     2:00:00: Balanced after 2 trials
   
     2:05:00: Balancing the network:

              Trial  1: relative flow change = 0.042885
              Trial  2: relative flow change = 0.004005
                        maximum  flow change = 1.6113 for Link 5
                        maximum  head error  = 0.0000 for Link p-831

     2:05:00: Balanced after 2 trials
   
     2:10:00: Balancing the network:

              Trial  1: relative flow change = 0.052102
              Trial  2: relative flow change = 0.007830
                        maximum  flow change = 4.5054 for Link PRV_inlet
                        maximum  head error  = 0.0001 for Link 5

     2:10:00: Balanced after 2 trials
   
     2:15:00: Balancing the network:

              Trial  1: relative flow change = 0.049327
              Trial  2: relative flow change = 0.009597
                        maximum  flow change = 3.8418 for Link PRV_inlet
                        maximum  head error  = 0.0001 for Link p-729

     2:15:00: Balanced after 2 trials
   
     2:20:00: Balancing the network:

              Trial  1: relative flow change = 0.037837
              Trial  2: relative flow change = 0.004709
                        maximum  flow change = 2.2667 for Link 5
                        maximum  head error  = 0.0000 for Link 5

     2:20:00: Balanced after 2 trials
   
     2:25:00: Balancing the network:

              Trial  1: relative flow change = 0.047156
              Trial  2: relative flow change = 0.008037
                        maximum  flow change = 4.0278 for Link 5
                        maximum  head error  = 0.0002 for Link p-831

     2:25:00: Balanced after 2 trials
   
     2:30:00: Balancing the network:

              Trial  1: relative flow change = 0.033209
              Trial  2: relative flow change = 0.003814
                        maximum  flow change = 1.1641 for Link 5
                        maximum  head error  = 0.0000 for Link p-831

     2:30:00: Balanced after 2 trials
   
     2:35:00: Balancing the network:

              Trial  1: relative flow change = 0.027805
              Trial  2: relative flow change = 0.011081
              Trial  3: relative flow change = 0.000982
                        maximum  flow change = 0.6282 for Link 5
                        maximum  head error  = 0.0000 for Link p-831

     2:35:00: Balanced after 3 trials
   
     2:40:00: Balancing the network:

              Trial  1: relative flow change = 0.049212
              Trial  2: relative flow change = 0.015262
              Trial  3: relative flow change = 0.001270
                        maximum  flow change = 0.6855 for Link 5
                        maximum  head error  = 0.0000 for Link p-196

     2:40:00: Balanced after 3 trials
   
     2:45:00: Balancing the network:

              Trial  1: relative flow change = 0.026331
              Trial  2: relative flow change = 0.003178
                        maximum  flow change = 0.4904 for Link PRV_inlet
                        maximum  head error  = 0.0000 for Link p-789

     2:45:00: Balanced after 2 trials
   
     2:50:00: Balancing the network:

              Trial  1: relative flow change = 0.033833
              Trial  2: relative flow change = 0.004407
                        maximum  flow change = 1.7258 for Link 5
                        maximum  head error  = 0.0000 for Link p-1098

     2:50:00: Balanced after 2 trials
   
     2:55:00: Balancing the network:

              Trial  1: relative flow change = 0.027830
              Trial  2: relative flow change = 0.012597
              Trial  3: relative flow change = 0.001133
                        maximum  flow change = 0.6374 for Link 5
                        maximum  head error  = 0.0000 for Link p-582

     2:55:00: Balanced after 3 trials
   
     3:00:00: Balancing the network:

              Trial  1: relative flow change = 0.034885
              Trial  2: relative flow change = 0.007642
                        maximum  flow change = 0.9226 for Link PRV_inlet
                        maximum  head error  = 0.0001 for Link p-582

     3:00:00: Balanced after 2 trials
   
     3:05:00: Balancing the network:

              Trial  1: relative flow change = 0.038472
              Trial  2: relative flow change = 0.011875
              Trial  3: relative flow change = 0.001122
                        maximum  flow change = 0.5720 for Link PRV_inlet
                        maximum  head error  = 0.0000 for Link p-248

     3:05:00: Balanced after 3 trials
   
     3:10:00: Balancing the network:

              Trial  1: relative flow change = 0.052165
              Trial  2: relative flow change = 0.012053
              Trial  3: relative flow change = 0.000664
                        maximum  flow change = 0.4034 for Link PRV_inlet
                        maximum  head error  = 0.0000 for Link p-831

     3:10:00: Balanced after 3 trials
   
     3:15:00: Balancing the network:

              Trial  1: relative flow change = 0.045522
              Trial  2: relative flow change = 0.005436
                        maximum  flow change = 3.7182 for Link 5
                        maximum  head error  = 0.0001 for Link 5

     3:15:00: Balanced after 2 trials
   
     3:20:00: Balancing the network:

              Trial  1: relative flow change = 0.047434
              Trial  2: relative flow change = 0.008268
                        maximum  flow change = 5.0479 for Link PRV_inlet
                        maximum  head error  = 0.0002 for Link 5

     3:20:00: Balanced after 2 trials
   
     3:25:00: Balancing the network:

              Trial  1: relative flow change = 0.029381
              Trial  2: relative flow change = 0.005363
                        maximum  flow change = 2.2539 for Link 5
                        maximum  head error  = 0.0001 for Link p-582

     3:25:00: Balanced after 2 trials
   
     3:30:00: Balancing the network:

              Trial  1: relative flow change = 0.066960
              Trial  2: relative flow change = 0.015181
              Trial  3: relative flow change = 0.000704
                        maximum  flow change = 0.5362 for Link PRV_inlet
                        maximum  head error  = 0.0000 for Link 5

     3:30:00: Balanced after 3 trials
   
     3:35:00: Balancing the network:

              Trial  1: relative flow change = 0.034808
              Trial  2: relative flow change = 0.012302
              Trial  3: relative flow change = 0.000837
                        maximum  flow change = 0.5625 for Link PRV_inlet
                        maximum  head error  = 0.0000 for Link p-831

     3:35:00: Balanced after 3 trials
   
     3:40:00: Balancing the network:

              Trial  1: relative flow change = 0.067770
              Trial  2: relative flow change = 0.013534
              Trial  3: relative flow change = 0.000510
                        maximum  flow change = 0.3540 for Link PRV_inlet
                        maximum  head error  = 0.0000 for Link 5

     3:40:00: Balanced after 3 trials
   
     3:45:00: Balancing the network:

              Trial  1: relative flow change = 0.066369
              Trial  2: relative flow change = 0.009278
                        maximum  flow change = 7.3271 for Link PRV_inlet
                        maximum  head error  = 0.0004 for Link 5

     3:45:00: Balanced after 2 trials
   
     3:50:00: Balancing the network:

              Trial  1: relative flow change = 0.049328
              Trial  2: relative flow change = 0.014782
              Trial  3: relative flow change = 0.001142
                        maximum  flow change = 0.6823 for Link 5
                        maximum  head error  = 0.0000 for Link p-115

     3:50:00: Balanced after 3 trials
   
     3:55:00: Balancing the network:

              Trial  1: relative flow change = 0.030956
              Trial  2: relative flow change = 0.008613
                        maximum  flow change = 0.9674 for Link 5
                        maximum  head error  = 0.0001 for Link p-1098

     3:55:00: Balanced after 2 trials
   
     4:00:00: Balancing the network:

              Trial  1: relative flow change = 0.091569
              Trial  2: relative flow change = 0.019217
              Trial  3: relative flow change = 0.000602
                        maximum  flow change = 0.3785 for Link 5
                        maximum  head error  = 0.0000 for Link p-124

     4:00:00: Balanced after 3 trials
   
     4:05:00: Balancing the network:

              Trial  1: relative flow change = 0.039101
              Trial  2: relative flow change = 0.005498
                        maximum  flow change = 0.9013 for Link PRV_inlet
                        maximum  head error  = 0.0000 for Link p-901

     4:05:00: Balanced after 2 trials
   
     4:10:00: Balancing the network:

              Trial  1: relative flow change = 0.040475
              Trial  2: relative flow change = 0.007024
                        maximum  flow change = 2.9930 for Link 5
                        maximum  head error  = 0.0001 for Link 5

     4:10:00: Balanced after 2 trials
   
     4:15:00: Balancing the network:

              Trial  1: relative flow change = 0.032606
              Trial  2: relative flow change = 0.005707
                        maximum  flow change = 0.8162 for Link PRV_inlet
                        maximum  head error  = 0.0000 for Link p-11

     4:15:00: Balanced after 2 trials
   
     4:20:00: Balancing the network:

              Trial  1: relative flow change = 0.039077
              Trial  2: relative flow change = 0.008416
                        maximum  flow change = 0.4920 for Link PRV_dist
                        maximum  head error  = 0.0001 for Link p-766

     4:20:00: Balanced after 2 trials
   
     4:25:00: Balancing the network:

              Trial  1: relative flow change = 0.032020
              Trial  2: relative flow change = 0.002894
                        maximum  flow change = 0.8660 for Link PRV_inlet
                        maximum  head error  = 0.0000 for Link p-1429

     4:25:00: Balanced after 2 trials
   
     4:30:00: Balancing the network:

              Trial  1: relative flow change = 0.032437
              Trial  2: relative flow change = 0.009875
                        maximum  flow change = 1.2334 for Link 5
                        maximum  head error  = 0.0001 for Link p-11

     4:30:00: Balanced after 2 trials
   
     4:35:00: Balancing the network:

              Trial  1: relative flow change = 0.044882
              Trial  2: relative flow change = 0.012476
              Trial  3: relative flow change = 0.000646
                        maximum  flow change = 0.5671 for Link 5
                        maximum  head error  = 0.0000 for Link p-196

     4:35:00: Balanced after 3 trials
   
     4:40:00: Balancing the network:

              Trial  1: relative flow change = 0.035838
              Trial  2: relative flow change = 0.006044
                        maximum  flow change = 0.6435 for Link 5
                        maximum  head error  = 0.0004 for Link p-901

     4:40:00: Balanced after 2 trials
   
     4:45:00: Balancing the network:

              Trial  1: relative flow change = 0.051789
              Trial  2: relative flow change = 0.009879
                        maximum  flow change = 9.0724 for Link PRV_inlet
                        maximum  head error  = 0.0005 for Link 5

     4:45:00: Balanced after 2 trials
   
     4:50:00: Balancing the network:

              Trial  1: relative flow change = 0.055745
              Trial  2: relative flow change = 0.012318
              Trial  3: relative flow change = 0.000690
                        maximum  flow change = 0.6566 for Link 5
                        maximum  head error  = 0.0000 for Link 5

     4:50:00: Balanced after 3 trials
   
     4:55:00: Balancing the network:

              Trial  1: relative flow change = 0.032786
              Trial  2: relative flow change = 0.011275
              Trial  3: relative flow change = 0.000884
                        maximum  flow change = 0.8419 for Link PRV_inlet
                        maximum  head error  = 0.0000 for Link 5

     4:55:00: Balanced after 3 trials
   
     5:00:00: Balancing the network:

              Trial  1: relative flow change = 0.043040
              Trial  2: relative flow change = 0.008485
                        maximum  flow change = 2.2828 for Link PRV_inlet
                        maximum  head error  = 0.0001 for Link p-196

     5:00:00: Balanced after 2 trials
   
     5:05:00: Balancing the network:

              Trial  1: relative flow change = 0.060655
              Trial  2: relative flow change = 0.014389
              Trial  3: relative flow change = 0.001551
                        maximum  flow change = 0.8590 for Link 5
                        maximum  head error  = 0.0001 for Link p-582

     5:05:00: Balanced after 3 trials
   
     5:10:00: Balancing the network:

              Trial  1: relative flow change = 0.073845
              Trial  2: relative flow change = 0.013207
              Trial  3: relative flow change = 0.000682
                        maximum  flow change = 0.2170 for Link 5
                        maximum  head error  = 0.0000 for Link p-1098

     5:10:00: Balanced after 3 trials
   
     5:15:00: Balancing the network:

              Trial  1: relative flow change = 0.054313
              Trial  2: relative flow change = 0.006587
                        maximum  flow change = 3.5308 for Link PRV_inlet
                        maximum  head error  = 0.0002 for Link p-196

     5:15:00: Balanced after 2 trials
   
     5:20:00: Balancing the network:

              Trial  1: relative flow change = 0.039886
              Trial  2: relative flow change = 0.007862
                        maximum  flow change = 0.6572 for Link p-1144
                        maximum  head error  = 0.0001 for Link p-11

     5:20:00: Balanced after 2 trials
   
     5:25:00: Balancing the network:

              Trial  1: relative flow change = 0.044700
              Trial  2: relative flow change = 0.012466
              Trial  3: relative flow change = 0.000743
                        maximum  flow change = 0.8409 for Link 5
                        maximum  head error  = 0.0000 for Link 5

     5:25:00: Balanced after 3 trials
   
     5:30:00: Balancing the network:

              Trial  1: relative flow change = 0.068646
              Trial  2: relative flow change = 0.015748
              Trial  3: relative flow change = 0.000741
                        maximum  flow change = 0.7921 for Link 5
                        maximum  head error  = 0.0000 for Link p-582

     5:30:00: Balanced after 3 trials
   
     5:35:00: Balancing the network:

              Trial  1: relative flow change = 0.048130
              Trial  2: relative flow change = 0.016814
              Trial  3: relative flow change = 0.001189
                        maximum  flow change = 1.0889 for Link 5
                        maximum  head error  = 0.0000 for Link p-582

     5:35:00: Balanced after 3 trials
   
     5:40:00: Balancing the network:

              Trial  1: relative flow change = 0.034703
              Trial  2: relative flow change = 0.007608
                        maximum  flow change = 1.3898 for Link 5
                        maximum  head error  = 0.0001 for Link p-461

     5:40:00: Balanced after 2 trials
   
     5:45:00: Balancing the network:

              Trial  1: relative flow change = 0.058702
              Trial  2: relative flow change = 0.005330
                        maximum  flow change = 3.7185 for Link PRV_inlet
                        maximum  head error  = 0.0002 for Link p-831

     5:45:00: Balanced after 2 trials
   
     5:50:00: Balancing the network:

              Trial  1: relative flow change = 0.040738
              Trial  2: relative flow change = 0.005581
                        maximum  flow change = 4.0003 for Link 5
                        maximum  head error  = 0.0001 for Link 5

     5:50:00: Balanced after 2 trials
   
     5:55:00: Balancing the network:

              Trial  1: relative flow change = 0.034891
              Trial  2: relative flow change = 0.006540
                        maximum  flow change = 1.7601 for Link 5
                        maximum  head error  = 0.0004 for Link p-831

     5:55:00: Balanced after 2 trials
   
     6:00:00: Balancing the network:

              Trial  1: relative flow change = 0.040100
              Trial  2: relative flow change = 0.006226
                        maximum  flow change = 1.9996 for Link 5
                        maximum  head error  = 0.0001 for Link p-901

     6:00:00: Balanced after 2 trials
   
     6:05:00: Balancing the network:

              Trial  1: relative flow change = 0.069796
              Trial  2: relative flow change = 0.010604
              Trial  3: relative flow change = 0.000462
                        maximum  flow change = 0.5885 for Link 5
                        maximum  head error  = 0.0000 for Link 5

     6:05:00: Balanced after 3 trials
   
     6:10:00: Balancing the network:

              Trial  1: relative flow change = 0.046472
              Trial  2: relative flow change = 0.004753
                        maximum  flow change = 3.5101 for Link 5
                        maximum  head error  = 0.0005 for Link p-547

     6:10:00: Balanced after 2 trials
   
     6:15:00: Balancing the network:

              Trial  1: relative flow change = 0.031296
              Trial  2: relative flow change = 0.002810
                        maximum  flow change = 0.6514 for Link PRV_inlet
                        maximum  head error  = 0.0001 for Link p-831

     6:15:00: Balanced after 2 trials
   
     6:20:00: Balancing the network:

              Trial  1: relative flow change = 0.042245
              Trial  2: relative flow change = 0.007367
                        maximum  flow change = 3.5513 for Link PRV_inlet
                        maximum  head error  = 0.0003 for Link p-196

     6:20:00: Balanced after 2 trials
   
     6:25:00: Balancing the network:

              Trial  1: relative flow change = 0.046192
              Trial  2: relative flow change = 0.005818
                        maximum  flow change = 3.8702 for Link 5
                        maximum  head error  = 0.0003 for Link p-196

     6:25:00: Balanced after 2 trials
   
     6:30:00: Balancing the network:

              Trial  1: relative flow change = 0.053076
              Trial  2: relative flow change = 0.011492
              Trial  3: relative flow change = 0.000600
                        maximum  flow change = 0.7384 for Link 5
                        maximum  head error  = 0.0000 for Link p-766

     6:30:00: Balanced after 3 trials
   
     6:35:00: Balancing the network:

              Trial  1: relative flow change = 0.046238
              Trial  2: relative flow change = 0.003372
                        maximum  flow change = 0.7833 for Link PRV_inlet
                        maximum  head error  = 0.0003 for Link p-901

     6:35:00: Balanced after 2 trials
     6:35:00: Tank T_Zone is emptying at 5.50 m
   
     6:40:00: Balancing the network:

              Trial  1: relative flow change = 0.042554
              Trial  2: relative flow change = 0.007283
                        maximum  flow change = 3.4158 for Link PRV_inlet
                        maximum  head error  = 0.0002 for Link p-582

     6:40:00: Balanced after 2 trials
   
     6:45:00: Balancing the network:

              Trial  1: relative flow change = 0.049074
              Trial  2: relative flow change = 0.014844
              Trial  3: relative flow change = 0.001040
                        maximum  flow change = 1.5837 for Link PRV_inlet
                        maximum  head error  = 0.0000 for Link 5

     6:45:00: Balanced after 3 trials
   
     6:50:00: Balancing the network:

              Trial  1: relative flow change = 0.063652
              Trial  2: relative flow change = 0.012277
              Trial  3: relative flow change = 0.000475
                        maximum  flow change = 0.6890 for Link 5
                        maximum  head error  = 0.0000 for Link p-196

     6:50:00: Balanced after 3 trials
   
     6:55:00: Balancing the network:

              Trial  1: relative flow change = 0.048228
              Trial  2: relative flow change = 0.011517
              Trial  3: relative flow change = 0.000565
                        maximum  flow change = 0.9199 for Link 5
                        maximum  head error  = 0.0000 for Link 5

     6:55:00: Balanced after 3 trials
   
     7:00:00: Balancing the network:

              Trial  1: relative flow change = 0.041693
              Trial  2: relative flow change = 0.010308
              Trial  3: relative flow change = 0.000645
                        maximum  flow change = 0.9328 for Link PRV_inlet
                        maximum  head error  = 0.0000 for Link 5

     7:00:00: Balanced after 3 trials
   
     7:05:00: Balancing the network:

              Trial  1: relative flow change = 0.064325
              Trial  2: relative flow change = 0.009815
                        maximum  flow change = 14.6928 for Link 5
                        maximum  head error  = 0.0012 for Link 5

     7:05:00: Balanced after 2 trials
   
     7:10:00: Balancing the network:

              Trial  1: relative flow change = 0.046914
              Trial  2: relative flow change = 0.007297
                        maximum  flow change = 7.1380 for Link PRV_inlet
                        maximum  head error  = 0.0003 for Link 5

     7:10:00: Balanced after 2 trials
   
     7:15:00: Balancing the network:

              Trial  1: relative flow change = 0.037794
              Trial  2: relative flow change = 0.004308
                        maximum  flow change = 3.9989 for Link 5
                        maximum  head error  = 0.0001 for Link 5

     7:15:00: Balanced after 2 trials
   
     7:20:00: Balancing the network:

              Trial  1: relative flow change = 0.073252
              Trial  2: relative flow change = 0.008809
                        maximum  flow change = 15.1568 for Link PRV_inlet
                        maximum  head error  = 0.0013 for Link 5

     7:20:00: Balanced after 2 trials
   
     7:25:00: Balancing the network:

              Trial  1: relative flow change = 0.033188
              Trial  2: relative flow change = 0.003744
                        maximum  flow change = 1.0238 for Link 5
                        maximum  head error  = 0.0001 for Link p-948

     7:25:00: Balanced after 2 trials
   
     7:30:00: Balancing the network:

              Trial  1: relative flow change = 0.062736
              Trial  2: relative flow change = 0.010619
              Trial  3: relative flow change = 0.000203
                        maximum  flow change = 0.3460 for Link PRV_inlet
                        maximum  head error  = 0.0000 for Link 5

     7:30:00: Balanced after 3 trials
   
     7:35:00: Balancing the network:

              Trial  1: relative flow change = 0.061427
              Trial  2: relative flow change = 0.009467
                        maximum  flow change = 14.2716 for Link 5
                        maximum  head error  = 0.0012 for Link 5

     7:35:00: Balanced after 2 trials
   
     7:40:00: Balancing the network:

              Trial  1: relative flow change = 0.038946
              Trial  2: relative flow change = 0.011472
              Trial  3: relative flow change = 0.001134
                        maximum  flow change = 1.3828 for Link 5
                        maximum  head error  = 0.0001 for Link p-766

     7:40:00: Balanced after 3 trials
   
     7:45:00: Balancing the network:

              Trial  1: relative flow change = 0.036233
              Trial  2: relative flow change = 0.007747
                        maximum  flow change = 5.8689 for Link 5
                        maximum  head error  = 0.0002 for Link 5

     7:45:00: Balanced after 2 trials
   
     7:50:00: Balancing the network:

              Trial  1: relative flow change = 0.028754
              Trial  2: relative flow change = 0.016806
              Trial  3: relative flow change = 0.001356
                        maximum  flow change = 2.1005 for Link 5
                        maximum  head error  = 0.0000 for Link p-196

     7:50:00: Balanced after 3 trials
   
     7:55:00: Balancing the network:

              Trial  1: relative flow change = 0.045828
              Trial  2: relative flow change = 0.003735
                        maximum  flow change = 4.2804 for Link PRV_inlet
                        maximum  head error  = 0.0001 for Link 5

     7:55:00: Balanced after 2 trials
   
     8:00:00: Balancing the network:

              Trial  1: relative flow change = 0.044302
              Trial  2: relative flow change = 0.011466
              Trial  3: relative flow change = 0.000647
                        maximum  flow change = 1.0918 for Link PRV_inlet
                        maximum  head error  = 0.0000 for Link 5

     8:00:00: Balanced after 3 trials
   
     8:05:00: Balancing the network:

              Trial  1: relative flow change = 0.037604
              Trial  2: relative flow change = 0.009689
                        maximum  flow change = 3.4231 for Link 5
                        maximum  head error  = 0.0003 for Link p-243

     8:05:00: Balanced after 2 trials
   
     8:10:00: Balancing the network:

              Trial  1: relative flow change = 0.030656
              Trial  2: relative flow change = 0.009262
                        maximum  flow change = 3.2325 for Link 5
                        maximum  head error  = 0.0003 for Link p-196

     8:10:00: Balanced after 2 trials
   
     8:15:00: Balancing the network:

              Trial  1: relative flow change = 0.050727
              Trial  2: relative flow change = 0.008432
                        maximum  flow change = 7.4088 for Link PRV_inlet
                        maximum  head error  = 0.0003 for Link 5

     8:15:00: Balanced after 2 trials
   
     8:20:00: Balancing the network:

              Trial  1: relative flow change = 0.049844
              Trial  2: relative flow change = 0.006029
                        maximum  flow change = 8.1635 for Link PRV_inlet
                        maximum  head error  = 0.0004 for Link 5

     8:20:00: Balanced after 2 trials
   
     8:25:00: Balancing the network:

              Trial  1: relative flow change = 0.037656
              Trial  2: relative flow change = 0.005903
                        maximum  flow change = 1.8506 for Link 5
                        maximum  head error  = 0.0001 for Link p-973

     8:25:00: Balanced after 2 trials
   
     8:30:00: Balancing the network:

              Trial  1: relative flow change = 0.035166
              Trial  2: relative flow change = 0.002265
                        maximum  flow change = 1.6738 for Link PRV_inlet
                        maximum  head error  = 0.0001 for Link p-582

     8:30:00: Balanced after 2 trials
   
     8:35:00: Balancing the network:

              Trial  1: relative flow change = 0.051490
              Trial  2: relative flow change = 0.011977
              Trial  3: relative flow change = 0.000506
                        maximum  flow change = 0.8809 for Link PRV_inlet
                        maximum  head error  = 0.0000 for Link 5

     8:35:00: Balanced after 3 trials
   
     8:40:00: Balancing the network:

              Trial  1: relative flow change = 0.069263
              Trial  2: relative flow change = 0.013057
              Trial  3: relative flow change = 0.000505
                        maximum  flow change = 0.8966 for Link 5
                        maximum  head error  = 0.0000 for Link p-196

     8:40:00: Balanced after 3 trials
   
     8:45:00: Balancing the network:

              Trial  1: relative flow change = 0.053698
              Trial  2: relative flow change = 0.013111
              Trial  3: relative flow change = 0.000677
                        maximum  flow change = 1.1951 for Link 5
                        maximum  head error  = 0.0000 for Link 5

     8:45:00: Balanced after 3 trials
   
     8:50:00: Balancing the network:

              Trial  1: relative flow change = 0.037944
              Trial  2: relative flow change = 0.005129
                        maximum  flow change = 2.3762 for Link 5
                        maximum  head error  = 0.0012 for Link p-789

     8:50:00: Balanced after 2 trials
   
     8:55:00: Balancing the network:

              Trial  1: relative flow change = 0.027938
              Trial  2: relative flow change = 0.004092
                        maximum  flow change = 0.5219 for Link p-1144
                        maximum  head error  = 0.0003 for Link p-582

     8:55:00: Balanced after 2 trials
   
     9:00:00: Balancing the network:

              Trial  1: relative flow change = 0.046539
              Trial  2: relative flow change = 0.005414
                        maximum  flow change = 3.3133 for Link 5
                        maximum  head error  = 0.0003 for Link p-582

     9:00:00: Balanced after 2 trials
   
     9:05:00: Balancing the network:

              Trial  1: relative flow change = 0.042234
              Trial  2: relative flow change = 0.008611
                        maximum  flow change = 1.9219 for Link PRV_inlet
                        maximum  head error  = 0.0006 for Link p-582

     9:05:00: Balanced after 2 trials
   
     9:10:00: Balancing the network:

              Trial  1: relative flow change = 0.036700
              Trial  2: relative flow change = 0.006089
                        maximum  flow change = 0.9250 for Link 5
                        maximum  head error  = 0.0001 for Link p-243

     9:10:00: Balanced after 2 trials
   
     9:15:00: Balancing the network:

              Trial  1: relative flow change = 0.042333
              Trial  2: relative flow change = 0.007305
                        maximum  flow change = 6.4978 for Link 5
                        maximum  head error  = 0.0002 for Link 5

     9:15:00: Balanced after 2 trials
   
     9:20:00: Balancing the network:

              Trial  1: relative flow change = 0.037246
              Trial  2: relative flow change = 0.008191
                        maximum  flow change = 1.0689 for Link p-1144
                        maximum  head error  = 0.0002 for Link p-11

     9:20:00: Balanced after 2 trials
   
     9:25:00: Balancing the network:

              Trial  1: relative flow change = 0.042275
              Trial  2: relative flow change = 0.013905
              Trial  3: relative flow change = 0.000931
                        maximum  flow change = 1.3513 for Link PRV_inlet
                        maximum  head error  = 0.0000 for Link 5

     9:25:00: Balanced after 3 trials
   
     9:30:00: Balancing the network:

              Trial  1: relative flow change = 0.052167
              Trial  2: relative flow change = 0.007999
                        maximum  flow change = 7.5884 for Link 5
                        maximum  head error  = 0.0003 for Link 5

     9:30:00: Balanced after 2 trials
   
     9:35:00: Balancing the network:

              Trial  1: relative flow change = 0.044282
              Trial  2: relative flow change = 0.004793
                        maximum  flow change = 6.5259 for Link 5
                        maximum  head error  = 0.0002 for Link 5

     9:35:00: Balanced after 2 trials
   
     9:40:00: Balancing the network:

              Trial  1: relative flow change = 0.034041
              Trial  2: relative flow change = 0.006009
                        maximum  flow change = 3.4261 for Link PRV_inlet
                        maximum  head error  = 0.0001 for Link 5

     9:40:00: Balanced after 2 trials
   
     9:45:00: Balancing the network:

              Trial  1: relative flow change = 0.068234
              Trial  2: relative flow change = 0.012312
              Trial  3: relative flow change = 0.000230
                        maximum  flow change = 0.3806 for Link 5
                        maximum  head error  = 0.0000 for Link 5

     9:45:00: Balanced after 3 trials
   
     9:50:00: Balancing the network:

              Trial  1: relative flow change = 0.044321
              Trial  2: relative flow change = 0.008602
                        maximum  flow change = 7.7913 for Link 5
                        maximum  head error  = 0.0003 for Link 5

     9:50:00: Balanced after 2 trials
   
     9:55:00: Balancing the network:

              Trial  1: relative flow change = 0.049591
              Trial  2: relative flow change = 0.007538
                        maximum  flow change = 8.3965 for Link PRV_inlet
                        maximum  head error  = 0.0004 for Link 5

     9:55:00: Balanced after 2 trials
   
    10:00:00: Balancing the network:

              Trial  1: relative flow change = 0.043988
              Trial  2: relative flow change = 0.004625
                        maximum  flow change = 4.4960 for Link PRV_inlet
                        maximum  head error  = 0.0006 for Link p-115

    10:00:00: Balanced after 2 trials
   
    10:05:00: Balancing the network:

              Trial  1: relative flow change = 0.046227
              Trial  2: relative flow change = 0.006035
                        maximum  flow change = 3.7295 for Link 5
                        maximum  head error  = 0.0001 for Link 5

    10:05:00: Balanced after 2 trials
   
    10:10:00: Balancing the network:

              Trial  1: relative flow change = 0.045928
              Trial  2: relative flow change = 0.008744
                        maximum  flow change = 4.3320 for Link 5
                        maximum  head error  = 0.0001 for Link p-461

    10:10:00: Balanced after 2 trials
   
    10:15:00: Balancing the network:

              Trial  1: relative flow change = 0.028433
              Trial  2: relative flow change = 0.003107
                        maximum  flow change = 2.7063 for Link 5
                        maximum  head error  = 0.0000 for Link 5

    10:15:00: Balanced after 2 trials
   
    10:20:00: Balancing the network:

              Trial  1: relative flow change = 0.077049
              Trial  2: relative flow change = 0.018728
              Trial  3: relative flow change = 0.000783
                        maximum  flow change = 1.2992 for Link PRV_inlet
                        maximum  head error  = 0.0000 for Link 5

    10:20:00: Balanced after 3 trials
   
    10:25:00: Balancing the network:

              Trial  1: relative flow change = 0.088069
              Trial  2: relative flow change = 0.012926
              Trial  3: relative flow change = 0.000209
                        maximum  flow change = 0.3033 for Link 5
                        maximum  head error  = 0.0000 for Link 5

    10:25:00: Balanced after 3 trials
   
    10:30:00: Balancing the network:

              Trial  1: relative flow change = 0.038918
              Trial  2: relative flow change = 0.005190
                        maximum  flow change = 2.0961 for Link 5
                        maximum  head error  = 0.0001 for Link p-196

    10:30:00: Balanced after 2 trials
   
    10:35:00: Balancing the network:

              Trial  1: relative flow change = 0.035997
              Trial  2: relative flow change = 0.007222
                        maximum  flow change = 3.1880 for Link PRV_inlet
                        maximum  head error  = 0.0005 for Link p-729

    10:35:00: Balanced after 2 trials
   
    10:40:00: Balancing the network:

              Trial  1: relative flow change = 0.080705
              Trial  2: relative flow change = 0.012931
              Trial  3: relative flow change = 0.000429
                        maximum  flow change = 0.5442 for Link PRV_inlet
                        maximum  head error  = 0.0000 for Link p-196

    10:40:00: Balanced after 3 trials
   
    10:45:00: Balancing the network:

              Trial  1: relative flow change = 0.044197
              Trial  2: relative flow change = 0.012819
              Trial  3: relative flow change = 0.000675
                        maximum  flow change = 0.9810 for Link PRV_inlet
                        maximum  head error  = 0.0000 for Link 5

    10:45:00: Balanced after 3 trials
   
    10:50:00: Balancing the network:

              Trial  1: relative flow change = 0.040209
              Trial  2: relative flow change = 0.004155
                        maximum  flow change = 1.0928 for Link 5
                        maximum  head error  = 0.0003 for Link p-839

    10:50:00: Balanced after 2 trials
   
    10:55:00: Balancing the network:

              Trial  1: relative flow change = 0.040469
              Trial  2: relative flow change = 0.003876
                        maximum  flow change = 1.5422 for Link 5
                        maximum  head error  = 0.0001 for Link p-831

    10:55:00: Balanced after 2 trials
   
    11:00:00: Balancing the network:

              Trial  1: relative flow change = 0.061281
              Trial  2: relative flow change = 0.009354
                        maximum  flow change = 9.0469 for Link PRV_inlet
                        maximum  head error  = 0.0005 for Link 5

    11:00:00: Balanced after 2 trials
   
    11:05:00: Balancing the network:

              Trial  1: relative flow change = 0.045264
              Trial  2: relative flow change = 0.007572
                        maximum  flow change = 6.0454 for Link PRV_inlet
                        maximum  head error  = 0.0002 for Link 5

    11:05:00: Balanced after 2 trials
   
    11:10:00: Balancing the network:

              Trial  1: relative flow change = 0.041135
              Trial  2: relative flow change = 0.002800
                        maximum  flow change = 0.8804 for Link 5
                        maximum  head error  = 0.0001 for Link p-582

    11:10:00: Balanced after 2 trials
   
    11:15:00: Balancing the network:

              Trial  1: relative flow change = 0.044177
              Trial  2: relative flow change = 0.008731
                        maximum  flow change = 5.9517 for Link 5
                        maximum  head error  = 0.0002 for Link 5

    11:15:00: Balanced after 2 trials
   
    11:20:00: Balancing the network:

              Trial  1: relative flow change = 0.040221
              Trial  2: relative flow change = 0.009686
                        maximum  flow change = 5.3502 for Link 5
                        maximum  head error  = 0.0002 for Link 5

    11:20:00: Balanced after 2 trials
   
    11:25:00: Balancing the network:

              Trial  1: relative flow change = 0.045342
              Trial  2: relative flow change = 0.007461
                        maximum  flow change = 5.3964 for Link PRV_inlet
                        maximum  head error  = 0.0002 for Link 5

    11:25:00: Balanced after 2 trials
   
    11:30:00: Balancing the network:

              Trial  1: relative flow change = 0.043784
              Trial  2: relative flow change = 0.005466
                        maximum  flow change = 4.1037 for Link PRV_inlet
                        maximum  head error  = 0.0002 for Link p-831

    11:30:00: Balanced after 2 trials
   
    11:35:00: Balancing the network:

              Trial  1: relative flow change = 0.050265
              Trial  2: relative flow change = 0.010154
              Trial  3: relative flow change = 0.000564
                        maximum  flow change = 0.7161 for Link PRV_inlet
                        maximum  head error  = 0.0000 for Link p-547

    11:35:00: Balanced after 3 trials
   
    11:40:00: Balancing the network:

              Trial  1: relative flow change = 0.046229
              Trial  2: relative flow change = 0.015887
              Trial  3: relative flow change = 0.001418
                        maximum  flow change = 1.5162 for Link 5
                        maximum  head error  = 0.0000 for Link p-243

    11:40:00: Balanced after 3 trials
   
    11:45:00: Balancing the network:

              Trial  1: relative flow change = 0.046111
              Trial  2: relative flow change = 0.004608
                        maximum  flow change = 3.7376 for Link PRV_inlet
                        maximum  head error  = 0.0004 for Link p-115

    11:45:00: Balanced after 2 trials
   
    11:50:00: Balancing the network:

              Trial  1: relative flow change = 0.044211
              Trial  2: relative flow change = 0.010280
              Trial  3: relative flow change = 0.000440
                        maximum  flow change = 0.5705 for Link 5
                        maximum  head error  = 0.0000 for Link 5

    11:50:00: Balanced after 3 trials
   
    11:55:00: Balancing the network:

              Trial  1: relative flow change = 0.037806
              Trial  2: relative flow change = 0.005072
                        maximum  flow change = 0.3629 for Link PRV_dist
                        maximum  head error  = 0.0003 for Link p-115

    11:55:00: Balanced after 2 trials
   
    12:00:00: Balancing the network:

              Trial  1: relative flow change = 0.043735
              Trial  2: relative flow change = 0.008045
                        maximum  flow change = 4.1548 for Link 5
                        maximum  head error  = 0.0001 for Link p-582

    12:00:00: Balanced after 2 trials
   
    12:05:00: Balancing the network:

              Trial  1: relative flow change = 0.045325
              Trial  2: relative flow change = 0.009664
                        maximum  flow change = 6.0897 for Link PRV_inlet
                        maximum  head error  = 0.0002 for Link 5

    12:05:00: Balanced after 2 trials
   
    12:10:00: Balancing the network:

              Trial  1: relative flow change = 0.049517
              Trial  2: relative flow change = 0.007419
                        maximum  flow change = 7.9757 for Link 5
                        maximum  head error  = 0.0004 for Link 5

    12:10:00: Balanced after 2 trials
   
    12:15:00: Balancing the network:

              Trial  1: relative flow change = 0.037838
              Trial  2: relative flow change = 0.005224
                        maximum  flow change = 0.5069 for Link p-1144
                        maximum  head error  = 0.0003 for Link p-582

    12:15:00: Balanced after 2 trials
   
    12:20:00: Balancing the network:

              Trial  1: relative flow change = 0.051654
              Trial  2: relative flow change = 0.006157
                        maximum  flow change = 6.0008 for Link 5
                        maximum  head error  = 0.0005 for Link p-766

    12:20:00: Balanced after 2 trials
   
    12:25:00: Balancing the network:

              Trial  1: relative flow change = 0.053732
              Trial  2: relative flow change = 0.014106
              Trial  3: relative flow change = 0.000801
                        maximum  flow change = 1.0549 for Link PRV_inlet
                        maximum  head error  = 0.0000 for Link p-196

    12:25:00: Balanced after 3 trials
   
    12:30:00: Balancing the network:

              Trial  1: relative flow change = 0.042781
              Trial  2: relative flow change = 0.004193
                        maximum  flow change = 2.9065 for Link 5
                        maximum  head error  = 0.0001 for Link p-831

    12:30:00: Balanced after 2 trials
   
    12:35:00: Balancing the network:

              Trial  1: relative flow change = 0.046050
              Trial  2: relative flow change = 0.004783
                        maximum  flow change = 3.8627 for Link PRV_inlet
                        maximum  head error  = 0.0001 for Link 5

    12:35:00: Balanced after 2 trials
   
    12:40:00: Balancing the network:

              Trial  1: relative flow change = 0.075110
              Trial  2: relative flow change = 0.020308
              Trial  3: relative flow change = 0.001195
                        maximum  flow change = 1.3962 for Link 5
                        maximum  head error  = 0.0000 for Link 5

    12:40:00: Balanced after 3 trials
   
    12:45:00: Balancing the network:

              Trial  1: relative flow change = 0.082982
              Trial  2: relative flow change = 0.019827
              Trial  3: relative flow change = 0.001092
                        maximum  flow change = 1.3074 for Link 5
                        maximum  head error  = 0.0000 for Link p-831

    12:45:00: Balanced after 3 trials
   
    12:50:00: Balancing the network:

              Trial  1: relative flow change = 0.033289
              Trial  2: relative flow change = 0.004574
                        maximum  flow change = 1.1202 for Link 5
                        maximum  head error  = 0.0005 for Link p-831

    12:50:00: Balanced after 2 trials
   
    12:55:00: Balancing the network:

              Trial  1: relative flow change = 0.038517
              Trial  2: relative flow change = 0.013320
              Trial  3: relative flow change = 0.001079
                        maximum  flow change = 1.3040 for Link 5
                        maximum  head error  = 0.0000 for Link p-766

    12:55:00: Balanced after 3 trials
   
    13:00:00: Balancing the network:

              Trial  1: relative flow change = 0.040708
              Trial  2: relative flow change = 0.010495
              Trial  3: relative flow change = 0.000723
                        maximum  flow change = 0.9100 for Link 5
                        maximum  head error  = 0.0000 for Link p-582

    13:00:00: Balanced after 3 trials
   
    13:05:00: Balancing the network:

              Trial  1: relative flow change = 0.035565
              Trial  2: relative flow change = 0.003925
                        maximum  flow change = 0.8121 for Link 5
                        maximum  head error  = 0.0001 for Link p-831

    13:05:00: Balanced after 2 trials
   
    13:10:00: Balancing the network:

              Trial  1: relative flow change = 0.054698
              Trial  2: relative flow change = 0.010133
              Trial  3: relative flow change = 0.000427
                        maximum  flow change = 0.5869 for Link PRV_inlet
                        maximum  head error  = 0.0000 for Link 5

    13:10:00: Balanced after 3 trials
   
    13:15:00: Balancing the network:

              Trial  1: relative flow change = 0.049383
              Trial  2: relative flow change = 0.008029
                        maximum  flow change = 6.4570 for Link 5
                        maximum  head error  = 0.0002 for Link 5

    13:15:00: Balanced after 2 trials
   
    13:20:00: Balancing the network:

              Trial  1: relative flow change = 0.036661
              Trial  2: relative flow change = 0.003791
                        maximum  flow change = 1.4898 for Link 5
                        maximum  head error  = 0.0000 for Link p-305

    13:20:00: Balanced after 2 trials
   
    13:25:00: Balancing the network:

              Trial  1: relative flow change = 0.033348
              Trial  2: relative flow change = 0.002036
                        maximum  flow change = 0.7725 for Link PRV_inlet
                        maximum  head error  = 0.0001 for Link p-196

    13:25:00: Balanced after 2 trials
   
    13:30:00: Balancing the network:

              Trial  1: relative flow change = 0.035959
              Trial  2: relative flow change = 0.008769
                        maximum  flow change = 2.0634 for Link PRV_inlet
                        maximum  head error  = 0.0001 for Link p-278

    13:30:00: Balanced after 2 trials
   
    13:35:00: Balancing the network:

              Trial  1: relative flow change = 0.037466
              Trial  2: relative flow change = 0.003730
                        maximum  flow change = 2.8748 for Link 5
                        maximum  head error  = 0.0000 for Link p-766

    13:35:00: Balanced after 2 trials
   
    13:40:00: Balancing the network:

              Trial  1: relative flow change = 0.033809
              Trial  2: relative flow change = 0.003672
                        maximum  flow change = 0.7622 for Link 5
                        maximum  head error  = 0.0001 for Link p-766

    13:40:00: Balanced after 2 trials
   
    13:45:00: Balancing the network:

              Trial  1: relative flow change = 0.044736
              Trial  2: relative flow change = 0.006828
                        maximum  flow change = 2.3744 for Link 5
                        maximum  head error  = 0.0002 for Link p-901

    13:45:00: Balanced after 2 trials
   
    13:50:00: Balancing the network:

              Trial  1: relative flow change = 0.045017
              Trial  2: relative flow change = 0.004938
                        maximum  flow change = 4.1549 for Link PRV_inlet
                        maximum  head error  = 0.0002 for Link p-831

    13:50:00: Balanced after 2 trials
   
    13:55:00: Balancing the network:

              Trial  1: relative flow change = 0.048107
              Trial  2: relative flow change = 0.003038
                        maximum  flow change = 1.9013 for Link 5
                        maximum  head error  = 0.0002 for Link p-831

    13:55:00: Balanced after 2 trials
   
    14:00:00: Balancing the network:

              Trial  1: relative flow change = 0.058700
              Trial  2: relative flow change = 0.006763
                        maximum  flow change = 4.7667 for Link PRV_inlet
                        maximum  head error  = 0.0001 for Link 5

    14:00:00: Balanced after 2 trials
   
    14:05:00: Balancing the network:

              Trial  1: relative flow change = 0.036445
              Trial  2: relative flow change = 0.006589
                        maximum  flow change = 1.9370 for Link PRV_inlet
                        maximum  head error  = 0.0004 for Link p-582

    14:05:00: Balanced after 2 trials
   
    14:10:00: Balancing the network:

              Trial  1: relative flow change = 0.065874
              Trial  2: relative flow change = 0.012312
              Trial  3: relative flow change = 0.000422
                        maximum  flow change = 0.5845 for Link PRV_inlet
                        maximum  head error  = 0.0000 for Link 5

    14:10:00: Balanced after 3 trials
   
    14:15:00: Balancing the network:

              Trial  1: relative flow change = 0.037314
              Trial  2: relative flow change = 0.005413
                        maximum  flow change = 2.8295 for Link 5
                        maximum  head error  = 0.0002 for Link p-831

    14:15:00: Balanced after 2 trials
   
    14:20:00: Balancing the network:

              Trial  1: relative flow change = 0.042403
              Trial  2: relative flow change = 0.004373
                        maximum  flow change = 5.1796 for Link 5
                        maximum  head error  = 0.0002 for Link 5

    14:20:00: Balanced after 2 trials
   
    14:25:00: Balancing the network:

              Trial  1: relative flow change = 0.039962
              Trial  2: relative flow change = 0.005731
                        maximum  flow change = 2.7495 for Link PRV_inlet
                        maximum  head error  = 0.0008 for Link p-831

    14:25:00: Balanced after 2 trials
   
    14:30:00: Balancing the network:

              Trial  1: relative flow change = 0.055234
              Trial  2: relative flow change = 0.005892
                        maximum  flow change = 6.1939 for Link 5
                        maximum  head error  = 0.0002 for Link 5

    14:30:00: Balanced after 2 trials
   
    14:35:00: Balancing the network:

              Trial  1: relative flow change = 0.059324
              Trial  2: relative flow change = 0.013944
              Trial  3: relative flow change = 0.000688
                        maximum  flow change = 0.9644 for Link PRV_inlet
                        maximum  head error  = 0.0000 for Link 5

    14:35:00: Balanced after 3 trials
   
    14:40:00: Balancing the network:

              Trial  1: relative flow change = 0.058533
              Trial  2: relative flow change = 0.008731
                        maximum  flow change = 9.5967 for Link PRV_inlet
                        maximum  head error  = 0.0007 for Link p-766

    14:40:00: Balanced after 2 trials
   
    14:45:00: Balancing the network:

              Trial  1: relative flow change = 0.048488
              Trial  2: relative flow change = 0.011359
              Trial  3: relative flow change = 0.000733
                        maximum  flow change = 0.8127 for Link PRV_inlet
                        maximum  head error  = 0.0000 for Link 5

    14:45:00: Balanced after 3 trials
   
    14:50:00: Balancing the network:

              Trial  1: relative flow change = 0.040132
              Trial  2: relative flow change = 0.009478
                        maximum  flow change = 5.0495 for Link 5
                        maximum  head error  = 0.0002 for Link p-973

    14:50:00: Balanced after 2 trials
   
    14:55:00: Balancing the network:

              Trial  1: relative flow change = 0.032930
              Trial  2: relative flow change = 0.003209
                        maximum  flow change = 0.2534 for Link PRV_dist
                        maximum  head error  = 0.0000 for Link p-582

    14:55:00: Balanced after 2 trials
   
    15:00:00: Balancing the network:

              Trial  1: relative flow change = 0.056001
              Trial  2: relative flow change = 0.008232
                        maximum  flow change = 5.4842 for Link 5
                        maximum  head error  = 0.0004 for Link p-582

    15:00:00: Balanced after 2 trials
   
    15:05:00: Balancing the network:

              Trial  1: relative flow change = 0.070544
              Trial  2: relative flow change = 0.012444
              Trial  3: relative flow change = 0.000433
                        maximum  flow change = 0.4665 for Link 5
                        maximum  head error  = 0.0000 for Link p-243

    15:05:00: Balanced after 3 trials
   
    15:10:00: Balancing the network:

              Trial  1: relative flow change = 0.051625
              Trial  2: relative flow change = 0.006964
                        maximum  flow change = 6.8596 for Link PRV_inlet
                        maximum  head error  = 0.0003 for Link 5

    15:10:00: Balanced after 2 trials
   
    15:15:00: Balancing the network:

              Trial  1: relative flow change = 0.059318
              Trial  2: relative flow change = 0.007655
                        maximum  flow change = 8.1515 for Link PRV_inlet
                        maximum  head error  = 0.0006 for Link p-831

    15:15:00: Balanced after 2 trials
   
    15:20:00: Balancing the network:

              Trial  1: relative flow change = 0.057971
              Trial  2: relative flow change = 0.014333
              Trial  3: relative flow change = 0.000758
                        maximum  flow change = 0.9844 for Link 5
                        maximum  head error  = 0.0000 for Link 5

    15:20:00: Balanced after 3 trials
   
    15:25:00: Balancing the network:

              Trial  1: relative flow change = 0.037053
              Trial  2: relative flow change = 0.010141
              Trial  3: relative flow change = 0.000684
                        maximum  flow change = 0.8826 for Link PRV_inlet
                        maximum  head error  = 0.0000 for Link 5

    15:25:00: Balanced after 3 trials
   
    15:30:00: Balancing the network:

              Trial  1: relative flow change = 0.047628
              Trial  2: relative flow change = 0.004406
                        maximum  flow change = 1.9351 for Link PRV_inlet
                        maximum  head error  = 0.0001 for Link p-831

    15:30:00: Balanced after 2 trials
   
    15:35:00: Balancing the network:

              Trial  1: relative flow change = 0.069231
              Trial  2: relative flow change = 0.009141
                        maximum  flow change = 4.0022 for Link PRV_inlet
                        maximum  head error  = 0.0002 for Link p-1491

    15:35:00: Balanced after 2 trials
   
    15:40:00: Balancing the network:

              Trial  1: relative flow change = 0.042126
              Trial  2: relative flow change = 0.010837
              Trial  3: relative flow change = 0.000726
                        maximum  flow change = 1.0169 for Link PRV_inlet
                        maximum  head error  = 0.0000 for Link 5

    15:40:00: Balanced after 3 trials
   
    15:45:00: Balancing the network:

              Trial  1: relative flow change = 0.034149
              Trial  2: relative flow change = 0.004910
                        maximum  flow change = 2.9056 for Link 5
                        maximum  head error  = 0.0007 for Link p-831

    15:45:00: Balanced after 2 trials
   
    15:50:00: Balancing the network:

              Trial  1: relative flow change = 0.080254
              Trial  2: relative flow change = 0.010738
              Trial  3: relative flow change = 0.000285
                        maximum  flow change = 0.2867 for Link 5
                        maximum  head error  = 0.0000 for Link p-582

    15:50:00: Balanced after 3 trials
   
    15:55:00: Balancing the network:

              Trial  1: relative flow change = 0.053334
              Trial  2: relative flow change = 0.005810
                        maximum  flow change = 6.4973 for Link PRV_inlet
                        maximum  head error  = 0.0002 for Link 5

    15:55:00: Balanced after 2 trials
   
    16:00:00: Balancing the network:

              Trial  1: relative flow change = 0.051906
              Trial  2: relative flow change = 0.007662
                        maximum  flow change = 6.5485 for Link PRV_inlet
                        maximum  head error  = 0.0003 for Link 5

    16:00:00: Balanced after 2 trials
   
    16:05:00: Balancing the network:

              Trial  1: relative flow change = 0.060688
              Trial  2: relative flow change = 0.008180
                        maximum  flow change = 10.7567 for Link 5
                        maximum  head error  = 0.0007 for Link 5

    16:05:00: Balanced after 2 trials
   
    16:10:00: Balancing the network:

              Trial  1: relative flow change = 0.043496
              Trial  2: relative flow change = 0.007216
                        maximum  flow change = 7.0451 for Link 5
                        maximum  head error  = 0.0003 for Link 5

    16:10:00: Balanced after 2 trials
   
    16:15:00: Balancing the network:

              Trial  1: relative flow change = 0.044925
              Trial  2: relative flow change = 0.003579
                        maximum  flow change = 1.3543 for Link 5
                        maximum  head error  = 0.0001 for Link p-582

    16:15:00: Balanced after 2 trials
   
    16:20:00: Balancing the network:

              Trial  1: relative flow change = 0.036875
              Trial  2: relative flow change = 0.006010
                        maximum  flow change = 0.5508 for Link PRV_dist
                        maximum  head error  = 0.0001 for Link p-188

    16:20:00: Balanced after 2 trials
   
    16:25:00: Balancing the network:

              Trial  1: relative flow change = 0.043044
              Trial  2: relative flow change = 0.010595
              Trial  3: relative flow change = 0.000618
                        maximum  flow change = 0.9596 for Link PRV_inlet
                        maximum  head error  = 0.0000 for Link 5

    16:25:00: Balanced after 3 trials
   
    16:30:00: Balancing the network:

              Trial  1: relative flow change = 0.048277
              Trial  2: relative flow change = 0.007117
                        maximum  flow change = 7.1319 for Link 5
                        maximum  head error  = 0.0003 for Link 5

    16:30:00: Balanced after 2 trials
   
    16:35:00: Balancing the network:

              Trial  1: relative flow change = 0.039941
              Trial  2: relative flow change = 0.006251
                        maximum  flow change = 1.1672 for Link 5
                        maximum  head error  = 0.0003 for Link p-243

    16:35:00: Balanced after 2 trials
   
    16:40:00: Balancing the network:

              Trial  1: relative flow change = 0.047562
              Trial  2: relative flow change = 0.009003
                        maximum  flow change = 5.9189 for Link 5
                        maximum  head error  = 0.0003 for Link p-196

    16:40:00: Balanced after 2 trials
   
    16:45:00: Balancing the network:

              Trial  1: relative flow change = 0.040865
              Trial  2: relative flow change = 0.005005
                        maximum  flow change = 5.1464 for Link 5
                        maximum  head error  = 0.0002 for Link 5

    16:45:00: Balanced after 2 trials
   
    16:50:00: Balancing the network:

              Trial  1: relative flow change = 0.042913
              Trial  2: relative flow change = 0.009900
                        maximum  flow change = 4.6766 for Link 5
                        maximum  head error  = 0.0004 for Link p-729

    16:50:00: Balanced after 2 trials
   
    16:55:00: Balancing the network:

              Trial  1: relative flow change = 0.049739
              Trial  2: relative flow change = 0.007169
                        maximum  flow change = 6.1292 for Link PRV_inlet
                        maximum  head error  = 0.0004 for Link p-582

    16:55:00: Balanced after 2 trials
   
    17:00:00: Balancing the network:

              Trial  1: relative flow change = 0.033069
              Trial  2: relative flow change = 0.004062
                        maximum  flow change = 3.5648 for Link PRV_inlet
                        maximum  head error  = 0.0001 for Link 5

    17:00:00: Balanced after 2 trials
   
    17:05:00: Balancing the network:

              Trial  1: relative flow change = 0.041069
              Trial  2: relative flow change = 0.006865
                        maximum  flow change = 5.5317 for Link 5
                        maximum  head error  = 0.0003 for Link p-582

    17:05:00: Balanced after 2 trials
   
    17:10:00: Balancing the network:

              Trial  1: relative flow change = 0.034783
              Trial  2: relative flow change = 0.003441
                        maximum  flow change = 0.9684 for Link 5
                        maximum  head error  = 0.0005 for Link p-733

    17:10:00: Balanced after 2 trials
   
    17:15:00: Balancing the network:

              Trial  1: relative flow change = 0.045083
              Trial  2: relative flow change = 0.008338
                        maximum  flow change = 3.0757 for Link 5
                        maximum  head error  = 0.0002 for Link p-547

    17:15:00: Balanced after 2 trials
   
    17:20:00: Balancing the network:

              Trial  1: relative flow change = 0.044640
              Trial  2: relative flow change = 0.013706
              Trial  3: relative flow change = 0.001014
                        maximum  flow change = 1.3858 for Link PRV_inlet
                        maximum  head error  = 0.0000 for Link 5

    17:20:00: Balanced after 3 trials
   
    17:25:00: Balancing the network:

              Trial  1: relative flow change = 0.033690
              Trial  2: relative flow change = 0.011642
              Trial  3: relative flow change = 0.000720
                        maximum  flow change = 1.0712 for Link 5
                        maximum  head error  = 0.0000 for Link 5

    17:25:00: Balanced after 3 trials
   
    17:30:00: Balancing the network:

              Trial  1: relative flow change = 0.041332
              Trial  2: relative flow change = 0.011782
              Trial  3: relative flow change = 0.000737
                        maximum  flow change = 1.0232 for Link 5
                        maximum  head error  = 0.0000 for Link 5

    17:30:00: Balanced after 3 trials
   
    17:35:00: Balancing the network:

              Trial  1: relative flow change = 0.041744
              Trial  2: relative flow change = 0.006072
                        maximum  flow change = 0.8493 for Link PRV_inlet
                        maximum  head error  = 0.0001 for Link p-582

    17:35:00: Balanced after 2 trials
   
    17:40:00: Balancing the network:

              Trial  1: relative flow change = 0.032964
              Trial  2: relative flow change = 0.012377
              Trial  3: relative flow change = 0.001210
                        maximum  flow change = 1.4105 for Link 5
                        maximum  head error  = 0.0000 for Link p-196

    17:40:00: Balanced after 3 trials
   
    17:45:00: Balancing the network:

              Trial  1: relative flow change = 0.030700
              Trial  2: relative flow change = 0.003311
                        maximum  flow change = 1.9501 for Link PRV_inlet
                        maximum  head error  = 0.0002 for Link p-766

    17:45:00: Balanced after 2 trials
   
    17:50:00: Balancing the network:

              Trial  1: relative flow change = 0.040975
              Trial  2: relative flow change = 0.025369
              Trial  3: relative flow change = 0.002060
                        maximum  flow change = 2.5281 for Link PRV_inlet
                        maximum  head error  = 0.0001 for Link p-196

    17:50:00: Balanced after 3 trials
   
    17:55:00: Balancing the network:

              Trial  1: relative flow change = 0.064958
              Trial  2: relative flow change = 0.010120
              Trial  3: relative flow change = 0.000328
                        maximum  flow change = 0.5027 for Link 5
                        maximum  head error  = 0.0000 for Link 5

    17:55:00: Balanced after 3 trials
   
    18:00:00: Balancing the network:

              Trial  1: relative flow change = 0.032440
              Trial  2: relative flow change = 0.002245
                        maximum  flow change = 1.8371 for Link 5
                        maximum  head error  = 0.0000 for Link 5

    18:00:00: Balanced after 2 trials
   
    18:05:00: Balancing the network:

              Trial  1: relative flow change = 0.040520
              Trial  2: relative flow change = 0.003664
                        maximum  flow change = 0.8286 for Link 5
                        maximum  head error  = 0.0001 for Link p-248

    18:05:00: Balanced after 2 trials
   
    18:10:00: Balancing the network:

              Trial  1: relative flow change = 0.033120
              Trial  2: relative flow change = 0.006783
                        maximum  flow change = 2.2340 for Link PRV_inlet
                        maximum  head error  = 0.0002 for Link p-789

    18:10:00: Balanced after 2 trials
   
    18:15:00: Balancing the network:

              Trial  1: relative flow change = 0.040868
              Trial  2: relative flow change = 0.004403
                        maximum  flow change = 3.1641 for Link PRV_inlet
                        maximum  head error  = 0.0005 for Link p-766

    18:15:00: Balanced after 2 trials
   
    18:20:00: Balancing the network:

              Trial  1: relative flow change = 0.056500
              Trial  2: relative flow change = 0.009177
                        maximum  flow change = 10.2410 for Link 5
                        maximum  head error  = 0.0006 for Link 5

    18:20:00: Balanced after 2 trials
   
    18:25:00: Balancing the network:

              Trial  1: relative flow change = 0.039989
              Trial  2: relative flow change = 0.002610
                        maximum  flow change = 0.3507 for Link PRV_inlet
                        maximum  head error  = 0.0002 for Link p-582

    18:25:00: Balanced after 2 trials
   
    18:30:00: Balancing the network:

              Trial  1: relative flow change = 0.047943
              Trial  2: relative flow change = 0.006915
                        maximum  flow change = 7.0948 for Link PRV_inlet
                        maximum  head error  = 0.0003 for Link 5

    18:30:00: Balanced after 2 trials
   
    18:35:00: Balancing the network:

              Trial  1: relative flow change = 0.032010
              Trial  2: relative flow change = 0.009222
                        maximum  flow change = 2.2996 for Link PRV_inlet
                        maximum  head error  = 0.0002 for Link p-177

    18:35:00: Balanced after 2 trials
   
    18:40:00: Balancing the network:

              Trial  1: relative flow change = 0.043640
              Trial  2: relative flow change = 0.008452
                        maximum  flow change = 2.2660 for Link PRV_inlet
                        maximum  head error  = 0.0002 for Link p-115

    18:40:00: Balanced after 2 trials
   
    18:45:00: Balancing the network:

              Trial  1: relative flow change = 0.031813
              Trial  2: relative flow change = 0.002300
                        maximum  flow change = 0.5396 for Link PRV_inlet
                        maximum  head error  = 0.0004 for Link p-196

    18:45:00: Balanced after 2 trials
   
    18:50:00: Balancing the network:

              Trial  1: relative flow change = 0.030466
              Trial  2: relative flow change = 0.009264
                        maximum  flow change = 1.5614 for Link 5
                        maximum  head error  = 0.0010 for Link p-582

[...]
              Trial  2: relative flow change = 0.004700
                        maximum  flow change = 3.8904 for Link 5
                        maximum  head error  = 0.0001 for Link 5

   211:25:00: Balanced after 2 trials
   
   211:30:00: Balancing the network:

              Trial  1: relative flow change = 0.056266
              Trial  2: relative flow change = 0.007377
                        maximum  flow change = 6.2012 for Link PRV_inlet
                        maximum  head error  = 0.0004 for Link p-789

   211:30:00: Balanced after 2 trials
   
   211:35:00: Balancing the network:

              Trial  1: relative flow change = 0.051824
              Trial  2: relative flow change = 0.009241
                        maximum  flow change = 8.6241 for Link 5
                        maximum  head error  = 0.0004 for Link 5

   211:35:00: Balanced after 2 trials
   
   211:40:00: Balancing the network:

              Trial  1: relative flow change = 0.042356
              Trial  2: relative flow change = 0.004176
                        maximum  flow change = 3.3940 for Link PRV_inlet
                        maximum  head error  = 0.0001 for Link 5

   211:40:00: Balanced after 2 trials
   
   211:45:00: Balancing the network:

              Trial  1: relative flow change = 0.030264
              Trial  2: relative flow change = 0.004668
                        maximum  flow change = 2.2912 for Link PRV_inlet
                        maximum  head error  = 0.0003 for Link p-547

   211:45:00: Balanced after 2 trials
   
   211:50:00: Balancing the network:

              Trial  1: relative flow change = 0.079058
              Trial  2: relative flow change = 0.009219
                        maximum  flow change = 13.2496 for Link 5
                        maximum  head error  = 0.0010 for Link 5

   211:50:00: Balanced after 2 trials
   
   211:55:00: Balancing the network:

              Trial  1: relative flow change = 0.045542
              Trial  2: relative flow change = 0.007332
                        maximum  flow change = 5.0002 for Link 5
                        maximum  head error  = 0.0003 for Link p-901

   211:55:00: Balanced after 2 trials
   
   212:00:00: Balancing the network:

              Trial  1: relative flow change = 0.066050
              Trial  2: relative flow change = 0.007184
                        maximum  flow change = 7.4149 for Link 5
                        maximum  head error  = 0.0003 for Link 5

   212:00:00: Balanced after 2 trials
   
   212:05:00: Balancing the network:

              Trial  1: relative flow change = 0.071995
              Trial  2: relative flow change = 0.013464
              Trial  3: relative flow change = 0.000475
                        maximum  flow change = 0.6638 for Link 5
                        maximum  head error  = 0.0000 for Link 5

   212:05:00: Balanced after 3 trials
   
   212:10:00: Balancing the network:

              Trial  1: relative flow change = 0.058610
              Trial  2: relative flow change = 0.010793
              Trial  3: relative flow change = 0.000277
                        maximum  flow change = 0.3987 for Link PRV_inlet
                        maximum  head error  = 0.0000 for Link 5

   212:10:00: Balanced after 3 trials
   
   212:15:00: Balancing the network:

              Trial  1: relative flow change = 0.028865
              Trial  2: relative flow change = 0.002312
                        maximum  flow change = 0.9717 for Link 5
                        maximum  head error  = 0.0000 for Link p-766

   212:15:00: Balanced after 2 trials
   
   212:20:00: Balancing the network:

              Trial  1: relative flow change = 0.036902
              Trial  2: relative flow change = 0.002668
                        maximum  flow change = 1.5618 for Link PRV_inlet
                        maximum  head error  = 0.0000 for Link p-184

   212:20:00: Balanced after 2 trials
   
   212:25:00: Balancing the network:

              Trial  1: relative flow change = 0.042837
              Trial  2: relative flow change = 0.004305
                        maximum  flow change = 1.4985 for Link PRV_inlet
                        maximum  head error  = 0.0001 for Link p-582

   212:25:00: Balanced after 2 trials
   
   212:30:00: Balancing the network:

              Trial  1: relative flow change = 0.043766
              Trial  2: relative flow change = 0.006586
                        maximum  flow change = 1.9138 for Link 5
                        maximum  head error  = 0.0007 for Link p-831

   212:30:00: Balanced after 2 trials
   
   212:35:00: Balancing the network:

              Trial  1: relative flow change = 0.040097
              Trial  2: relative flow change = 0.005084
                        maximum  flow change = 3.6914 for Link PRV_inlet
                        maximum  head error  = 0.0004 for Link p-766

   212:35:00: Balanced after 2 trials
   
   212:40:00: Balancing the network:

              Trial  1: relative flow change = 0.056845
              Trial  2: relative flow change = 0.008059
                        maximum  flow change = 5.6911 for Link PRV_inlet
                        maximum  head error  = 0.0007 for Link p-115

   212:40:00: Balanced after 2 trials
   
   212:45:00: Balancing the network:

              Trial  1: relative flow change = 0.040466
              Trial  2: relative flow change = 0.005641
                        maximum  flow change = 1.0673 for Link 5
                        maximum  head error  = 0.0001 for Link p-124

   212:45:00: Balanced after 2 trials
   
   212:50:00: Balancing the network:

              Trial  1: relative flow change = 0.068942
              Trial  2: relative flow change = 0.012262
              Trial  3: relative flow change = 0.000446
                        maximum  flow change = 0.5756 for Link 5
                        maximum  head error  = 0.0000 for Link 5

   212:50:00: Balanced after 3 trials
   
   212:55:00: Balancing the network:

              Trial  1: relative flow change = 0.058155
              Trial  2: relative flow change = 0.010931
              Trial  3: relative flow change = 0.000375
                        maximum  flow change = 0.4374 for Link 5
                        maximum  head error  = 0.0000 for Link 5

   212:55:00: Balanced after 3 trials
   
   213:00:00: Balancing the network:

              Trial  1: relative flow change = 0.036302
              Trial  2: relative flow change = 0.005696
                        maximum  flow change = 0.5139 for Link p-1144
                        maximum  head error  = 0.0001 for Link p-839

   213:00:00: Balanced after 2 trials
   
   213:05:00: Balancing the network:

              Trial  1: relative flow change = 0.049625
              Trial  2: relative flow change = 0.011912
              Trial  3: relative flow change = 0.000561
                        maximum  flow change = 0.7207 for Link 5
                        maximum  head error  = 0.0000 for Link 5

   213:05:00: Balanced after 3 trials
   
   213:10:00: Balancing the network:

              Trial  1: relative flow change = 0.035744
              Trial  2: relative flow change = 0.007760
                        maximum  flow change = 4.0625 for Link 5
                        maximum  head error  = 0.0001 for Link p-733

   213:10:00: Balanced after 2 trials
   
   213:15:00: Balancing the network:

              Trial  1: relative flow change = 0.070613
              Trial  2: relative flow change = 0.011498
              Trial  3: relative flow change = 0.000296
                        maximum  flow change = 0.2615 for Link PRV_inlet
                        maximum  head error  = 0.0000 for Link p-243

   213:15:00: Balanced after 3 trials
   
   213:20:00: Balancing the network:

              Trial  1: relative flow change = 0.064317
              Trial  2: relative flow change = 0.011223
              Trial  3: relative flow change = 0.000254
                        maximum  flow change = 0.1415 for Link PRV_inlet
                        maximum  head error  = 0.0000 for Link p-196

   213:20:00: Balanced after 3 trials
   
   213:25:00: Balancing the network:

              Trial  1: relative flow change = 0.067888
              Trial  2: relative flow change = 0.018043
              Trial  3: relative flow change = 0.000709
                        maximum  flow change = 0.8658 for Link 5
                        maximum  head error  = 0.0000 for Link 5

   213:25:00: Balanced after 3 trials
   
   213:30:00: Balancing the network:

              Trial  1: relative flow change = 0.037876
              Trial  2: relative flow change = 0.005572
                        maximum  flow change = 1.4877 for Link 5
                        maximum  head error  = 0.0000 for Link p-973

   213:30:00: Balanced after 2 trials
   
   213:35:00: Balancing the network:

              Trial  1: relative flow change = 0.046489
              Trial  2: relative flow change = 0.006006
                        maximum  flow change = 3.7863 for Link 5
                        maximum  head error  = 0.0001 for Link 5

   213:35:00: Balanced after 2 trials
   
   213:40:00: Balancing the network:

              Trial  1: relative flow change = 0.048121
              Trial  2: relative flow change = 0.006611
                        maximum  flow change = 4.1753 for Link 5
                        maximum  head error  = 0.0001 for Link p-196

   213:40:00: Balanced after 2 trials
   
   213:45:00: Balancing the network:

              Trial  1: relative flow change = 0.092035
              Trial  2: relative flow change = 0.016943
              Trial  3: relative flow change = 0.000645
                        maximum  flow change = 0.6060 for Link 5
                        maximum  head error  = 0.0000 for Link p-582

   213:45:00: Balanced after 3 trials
   
   213:50:00: Balancing the network:

              Trial  1: relative flow change = 0.036669
              Trial  2: relative flow change = 0.005282
                        maximum  flow change = 1.1614 for Link PRV_inlet
                        maximum  head error  = 0.0001 for Link p-177

   213:50:00: Balanced after 2 trials
   
   213:55:00: Balancing the network:

              Trial  1: relative flow change = 0.043102
              Trial  2: relative flow change = 0.012034
              Trial  3: relative flow change = 0.000917
                        maximum  flow change = 1.0809 for Link PRV_inlet
                        maximum  head error  = 0.0000 for Link 5

   213:55:00: Balanced after 3 trials
   
   214:00:00: Balancing the network:

              Trial  1: relative flow change = 0.033079
              Trial  2: relative flow change = 0.007352
                        maximum  flow change = 3.5697 for Link PRV_inlet
                        maximum  head error  = 0.0001 for Link 5

   214:00:00: Balanced after 2 trials
   
   214:05:00: Balancing the network:

              Trial  1: relative flow change = 0.044055
              Trial  2: relative flow change = 0.008407
                        maximum  flow change = 4.0733 for Link PRV_inlet
                        maximum  head error  = 0.0002 for Link p-582

   214:05:00: Balanced after 2 trials
   214:05:00: Tank T_Zone is filling at 4.26 m
   
   214:10:00: Balancing the network:

              Trial  1: relative flow change = 0.037172
              Trial  2: relative flow change = 0.004942
                        maximum  flow change = 3.1255 for Link 5
                        maximum  head error  = 0.0001 for Link 5

   214:10:00: Balanced after 2 trials
   
   214:15:00: Balancing the network:

              Trial  1: relative flow change = 0.037459
              Trial  2: relative flow change = 0.006766
                        maximum  flow change = 2.2845 for Link 5
                        maximum  head error  = 0.0001 for Link p-547

   214:15:00: Balanced after 2 trials
   
   214:20:00: Balancing the network:

              Trial  1: relative flow change = 0.036011
              Trial  2: relative flow change = 0.008713
                        maximum  flow change = 3.8304 for Link 5
                        maximum  head error  = 0.0001 for Link 5

   214:20:00: Balanced after 2 trials
   
   214:25:00: Balancing the network:

              Trial  1: relative flow change = 0.043008
              Trial  2: relative flow change = 0.006301
                        maximum  flow change = 1.3410 for Link 5
                        maximum  head error  = 0.0002 for Link p-547

   214:25:00: Balanced after 2 trials
   
   214:30:00: Balancing the network:

              Trial  1: relative flow change = 0.031074
              Trial  2: relative flow change = 0.003181
                        maximum  flow change = 0.5532 for Link PRV_inlet
                        maximum  head error  = 0.0002 for Link p-547

   214:30:00: Balanced after 2 trials
   
   214:35:00: Balancing the network:

              Trial  1: relative flow change = 0.032211
              Trial  2: relative flow change = 0.005065
                        maximum  flow change = 1.5236 for Link PRV_inlet
                        maximum  head error  = 0.0003 for Link p-831

   214:35:00: Balanced after 2 trials
   
   214:40:00: Balancing the network:

              Trial  1: relative flow change = 0.044528
              Trial  2: relative flow change = 0.005987
                        maximum  flow change = 3.1920 for Link 5
                        maximum  head error  = 0.0001 for Link p-177

   214:40:00: Balanced after 2 trials
   
   214:45:00: Balancing the network:

              Trial  1: relative flow change = 0.049659
              Trial  2: relative flow change = 0.019301
              Trial  3: relative flow change = 0.001101
                        maximum  flow change = 0.9537 for Link 5
                        maximum  head error  = 0.0000 for Link 5

   214:45:00: Balanced after 3 trials
   
   214:50:00: Balancing the network:

              Trial  1: relative flow change = 0.043315
              Trial  2: relative flow change = 0.012268
              Trial  3: relative flow change = 0.001149
                        maximum  flow change = 0.8745 for Link 5
                        maximum  head error  = 0.0000 for Link p-196

   214:50:00: Balanced after 3 trials
   
   214:55:00: Balancing the network:

              Trial  1: relative flow change = 0.028494
              Trial  2: relative flow change = 0.003565
                        maximum  flow change = 0.3657 for Link PRV_inlet
                        maximum  head error  = 0.0005 for Link p-582

   214:55:00: Balanced after 2 trials
   
   215:00:00: Balancing the network:

              Trial  1: relative flow change = 0.053720
              Trial  2: relative flow change = 0.015473
              Trial  3: relative flow change = 0.001039
                        maximum  flow change = 0.8507 for Link 5
                        maximum  head error  = 0.0000 for Link 5

   215:00:00: Balanced after 3 trials
   
   215:05:00: Balancing the network:

              Trial  1: relative flow change = 0.041152
              Trial  2: relative flow change = 0.003513
                        maximum  flow change = 0.2602 for Link p-43
                        maximum  head error  = 0.0004 for Link p-582

   215:05:00: Balanced after 2 trials
   
   215:10:00: Balancing the network:

              Trial  1: relative flow change = 0.034723
              Trial  2: relative flow change = 0.006496
                        maximum  flow change = 0.7906 for Link PRV_inlet
                        maximum  head error  = 0.0001 for Link p-461

   215:10:00: Balanced after 2 trials
   
   215:15:00: Balancing the network:

              Trial  1: relative flow change = 0.059428
              Trial  2: relative flow change = 0.008258
                        maximum  flow change = 5.0605 for Link PRV_inlet
                        maximum  head error  = 0.0002 for Link p-831

   215:15:00: Balanced after 2 trials
   
   215:20:00: Balancing the network:

              Trial  1: relative flow change = 0.027617
              Trial  2: relative flow change = 0.004574
                        maximum  flow change = 1.7094 for Link PRV_inlet
                        maximum  head error  = 0.0001 for Link p-831

   215:20:00: Balanced after 2 trials
   
   215:25:00: Balancing the network:

              Trial  1: relative flow change = 0.034905
              Trial  2: relative flow change = 0.004444
                        maximum  flow change = 2.3747 for Link 5
                        maximum  head error  = 0.0001 for Link p-831

   215:25:00: Balanced after 2 trials
   
   215:30:00: Balancing the network:

              Trial  1: relative flow change = 0.034653
              Trial  2: relative flow change = 0.015290
              Trial  3: relative flow change = 0.001602
                        maximum  flow change = 1.0476 for Link 5
                        maximum  head error  = 0.0000 for Link p-243

   215:30:00: Balanced after 3 trials
   
   215:35:00: Balancing the network:

              Trial  1: relative flow change = 0.030589
              Trial  2: relative flow change = 0.012199
              Trial  3: relative flow change = 0.001005
                        maximum  flow change = 0.7956 for Link 5
                        maximum  head error  = 0.0000 for Link 5

   215:35:00: Balanced after 3 trials
   
   215:40:00: Balancing the network:

              Trial  1: relative flow change = 0.034301
              Trial  2: relative flow change = 0.005515
                        maximum  flow change = 2.4758 for Link PRV_inlet
                        maximum  head error  = 0.0001 for Link p-196

   215:40:00: Balanced after 2 trials
   
   215:45:00: Balancing the network:

              Trial  1: relative flow change = 0.036051
              Trial  2: relative flow change = 0.005459
                        maximum  flow change = 0.3550 for Link p-733
                        maximum  head error  = 0.0002 for Link p-733

   215:45:00: Balanced after 2 trials
   
   215:50:00: Balancing the network:

              Trial  1: relative flow change = 0.043854
              Trial  2: relative flow change = 0.006234
                        maximum  flow change = 1.4836 for Link PRV_inlet
                        maximum  head error  = 0.0002 for Link p-177

   215:50:00: Balanced after 2 trials
   
   215:55:00: Balancing the network:

              Trial  1: relative flow change = 0.037075
              Trial  2: relative flow change = 0.005208
                        maximum  flow change = 1.2636 for Link 5
                        maximum  head error  = 0.0000 for Link p-766

   215:55:00: Balanced after 2 trials
   
   216:00:00: Balancing the network:

              Trial  1: relative flow change = 0.038932
              Trial  2: relative flow change = 0.007559
                        maximum  flow change = 2.4780 for Link 5
                        maximum  head error  = 0.0000 for Link 5

   216:00:00: Balanced after 2 trials
   
  Hydraulic Flow Balance (m3/h)
  ================================
  Total Inflow:           380.000
  Consumer Demand:        387.728
  Demand Deficit:           0.000
  Emitter Flow:             0.000
  Leakage Flow:             0.000
  Total Outflow:          387.728
  Storage Flow:            -7.712
  Flow Ratio:               1.000
  ================================

  Water Quality Mass Balance (mg)
  ================================
  Initial Mass:       0.00000e+00
  Mass Inflow:        4.92486e+07
  Mass Outflow:       8.88956e+06
  Mass Reacted:       3.80737e+07
  Final Mass:         2.28583e+06
  Mass Ratio:         1.00001
  Total Segments:     934
  ================================

  Analysis ended Tue Apr 21 09:29:58 2026
