  Page 1                                    Tue Apr 21 09:09:48 2026

  ******************************************************************
  *                           E P A N E T                          *
  *                   Hydraulic and Water Quality                  *
  *                   Analysis for Pipe Networks                   *
  *                          Version 2.3.04                        *
  ******************************************************************
  
  Processing MSX input file CY-DBP_competition_stream_competition_6days_1.msx
  
  Analysis begun Tue Apr 21 09:09:49 2026

   
  Hydraulic Status:
  -----------------------------------------------------------------------
     0:00:00: Balancing the network:

              Trial  1: relative flow change = 1.784646
              PRV PRV_inlet switched from active to closed
              Trial  2: relative flow change = 0.480601
              PRV PRV_dist switched from active to open
              PRV PRV_inlet switched from closed to active
              Trial  3: relative flow change = 0.383877
              PRV PRV_dist switched from open to active
              Trial  4: relative flow change = 0.219043
              Trial  5: relative flow change = 0.046775
              Trial  6: relative flow change = 0.011898
              Trial  7: relative flow change = 0.001996
                        maximum  flow change = 0.1972 for Link p-839
                        maximum  head error  = 0.0001 for Link p-839

     0:00:00: Balanced after 7 trials
     0:00:00: Reservoir WTP is emptying
     0:00:00: Tank T_Zone is filling at 5.00 m
   
     0:05:00: Balancing the network:

              Trial  1: relative flow change = 0.041716
              Trial  2: relative flow change = 0.004969
                        maximum  flow change = 3.0005 for Link 5
                        maximum  head error  = 0.0001 for Link 5

     0:05:00: Balanced after 2 trials
   
     0:10:00: Balancing the network:

              Trial  1: relative flow change = 0.040739
              Trial  2: relative flow change = 0.006111
                        maximum  flow change = 1.0280 for Link 5
                        maximum  head error  = 0.0001 for Link p-1477

     0:10:00: Balanced after 2 trials
   
     0:15:00: Balancing the network:

              Trial  1: relative flow change = 0.043300
              Trial  2: relative flow change = 0.011076
              Trial  3: relative flow change = 0.000787
                        maximum  flow change = 0.4243 for Link 5
                        maximum  head error  = 0.0000 for Link p-831

     0:15:00: Balanced after 3 trials
   
     0:20:00: Balancing the network:

              Trial  1: relative flow change = 0.048777
              Trial  2: relative flow change = 0.015041
              Trial  3: relative flow change = 0.000911
                        maximum  flow change = 0.6971 for Link 5
                        maximum  head error  = 0.0000 for Link 5

     0:20:00: Balanced after 3 trials
   
     0:25:00: Balancing the network:

              Trial  1: relative flow change = 0.039827
              Trial  2: relative flow change = 0.003636
                        maximum  flow change = 0.5639 for Link PRV_inlet
                        maximum  head error  = 0.0001 for Link p-973

     0:25:00: Balanced after 2 trials
   
     0:30:00: Balancing the network:

              Trial  1: relative flow change = 0.062851
              Trial  2: relative flow change = 0.008855
                        maximum  flow change = 5.9274 for Link 5
                        maximum  head error  = 0.0002 for Link 5

     0:30:00: Balanced after 2 trials
   
     0:35:00: Balancing the network:

              Trial  1: relative flow change = 0.027835
              Trial  2: relative flow change = 0.003358
                        maximum  flow change = 0.2323 for Link PRV_inlet
                        maximum  head error  = 0.0002 for Link p-831

     0:35:00: Balanced after 2 trials
   
     0:40:00: Balancing the network:

              Trial  1: relative flow change = 0.059374
              Trial  2: relative flow change = 0.006489
                        maximum  flow change = 3.8527 for Link 5
                        maximum  head error  = 0.0001 for Link 5

     0:40:00: Balanced after 2 trials
   
     0:45:00: Balancing the network:

              Trial  1: relative flow change = 0.069105
              Trial  2: relative flow change = 0.014698
              Trial  3: relative flow change = 0.001239
                        maximum  flow change = 0.8010 for Link PRV_inlet
                        maximum  head error  = 0.0000 for Link p-115

     0:45:00: Balanced after 3 trials
   
     0:50:00: Balancing the network:

              Trial  1: relative flow change = 0.027847
              Trial  2: relative flow change = 0.011860
              Trial  3: relative flow change = 0.001083
                        maximum  flow change = 0.7204 for Link PRV_inlet
                        maximum  head error  = 0.0000 for Link p-115

     0:50:00: Balanced after 3 trials
   
     0:55:00: Balancing the network:

              Trial  1: relative flow change = 0.039387
              Trial  2: relative flow change = 0.004166
                        maximum  flow change = 2.1698 for Link 5
                        maximum  head error  = 0.0000 for Link 5

     0:55:00: Balanced after 2 trials
   
     1:00:00: Balancing the network:

              Trial  1: relative flow change = 0.043795
              Trial  2: relative flow change = 0.006604
                        maximum  flow change = 2.1188 for Link PRV_inlet
                        maximum  head error  = 0.0011 for Link p-831

     1:00:00: Balanced after 2 trials
   
     1:05:00: Balancing the network:

              Trial  1: relative flow change = 0.045552
              Trial  2: relative flow change = 0.009117
                        maximum  flow change = 5.1322 for Link PRV_inlet
                        maximum  head error  = 0.0002 for Link 5

     1:05:00: Balanced after 2 trials
   
     1:10:00: Balancing the network:

              Trial  1: relative flow change = 0.043696
              Trial  2: relative flow change = 0.004659
                        maximum  flow change = 0.8982 for Link PRV_inlet
                        maximum  head error  = 0.0002 for Link p-831

     1:10:00: Balanced after 2 trials
   
     1:15:00: Balancing the network:

              Trial  1: relative flow change = 0.041360
              Trial  2: relative flow change = 0.009676
                        maximum  flow change = 2.4118 for Link 5
                        maximum  head error  = 0.0004 for Link p-831

     1:15:00: Balanced after 2 trials
   
     1:20:00: Balancing the network:

              Trial  1: relative flow change = 0.035469
              Trial  2: relative flow change = 0.006732
                        maximum  flow change = 3.3394 for Link PRV_inlet
                        maximum  head error  = 0.0001 for Link 5

     1:20:00: Balanced after 2 trials
   
     1:25:00: Balancing the network:

              Trial  1: relative flow change = 0.040806
              Trial  2: relative flow change = 0.005915
                        maximum  flow change = 2.3698 for Link 5
                        maximum  head error  = 0.0000 for Link p-948

     1:25:00: Balanced after 2 trials
   
     1:30:00: Balancing the network:

              Trial  1: relative flow change = 0.035930
              Trial  2: relative flow change = 0.005635
                        maximum  flow change = 0.5705 for Link 5
                        maximum  head error  = 0.0001 for Link p-1429

     1:30:00: Balanced after 2 trials
   
     1:35:00: Balancing the network:

              Trial  1: relative flow change = 0.050693
              Trial  2: relative flow change = 0.010966
              Trial  3: relative flow change = 0.000743
                        maximum  flow change = 0.4374 for Link PRV_inlet
                        maximum  head error  = 0.0000 for Link 5

     1:35:00: Balanced after 3 trials
   
     1:40:00: Balancing the network:

              Trial  1: relative flow change = 0.024944
              Trial  2: relative flow change = 0.004650
                        maximum  flow change = 0.4702 for Link PRV_inlet
                        maximum  head error  = 0.0000 for Link p-1540

     1:40:00: Balanced after 2 trials
   
     1:45:00: Balancing the network:

              Trial  1: relative flow change = 0.036843
              Trial  2: relative flow change = 0.012086
              Trial  3: relative flow change = 0.000619
                        maximum  flow change = 0.3878 for Link 5
                        maximum  head error  = 0.0000 for Link 5

     1:45:00: Balanced after 3 trials
   
     1:50:00: Balancing the network:

              Trial  1: relative flow change = 0.063438
              Trial  2: relative flow change = 0.008125
                        maximum  flow change = 3.7407 for Link PRV_inlet
                        maximum  head error  = 0.0001 for Link p-766

     1:50:00: Balanced after 2 trials
   
     1:55:00: Balancing the network:

              Trial  1: relative flow change = 0.070989
              Trial  2: relative flow change = 0.011879
              Trial  3: relative flow change = 0.000365
                        maximum  flow change = 0.0771 for Link 5
                        maximum  head error  = 0.0000 for Link p-196

     1:55:00: Balanced after 3 trials
   
     2:00:00: Balancing the network:

              Trial  1: relative flow change = 0.033059
              Trial  2: relative flow change = 0.004287
                        maximum  flow change = 1.6359 for Link PRV_inlet
                        maximum  head error  = 0.0000 for Link 5

     2:00:00: Balanced after 2 trials
   
     2:05:00: Balancing the network:

              Trial  1: relative flow change = 0.031538
              Trial  2: relative flow change = 0.013173
              Trial  3: relative flow change = 0.001296
                        maximum  flow change = 0.8049 for Link PRV_inlet
                        maximum  head error  = 0.0000 for Link 5

     2:05:00: Balanced after 3 trials
   
     2:10:00: Balancing the network:

              Trial  1: relative flow change = 0.051178
              Trial  2: relative flow change = 0.015955
              Trial  3: relative flow change = 0.001178
                        maximum  flow change = 0.7434 for Link 5
                        maximum  head error  = 0.0000 for Link p-177

     2:10:00: Balanced after 3 trials
   
     2:15:00: Balancing the network:

              Trial  1: relative flow change = 0.043103
              Trial  2: relative flow change = 0.021219
              Trial  3: relative flow change = 0.001542
                        maximum  flow change = 1.0708 for Link PRV_inlet
                        maximum  head error  = 0.0000 for Link p-196

     2:15:00: Balanced after 3 trials
   
     2:20:00: Balancing the network:

              Trial  1: relative flow change = 0.033538
              Trial  2: relative flow change = 0.004258
                        maximum  flow change = 1.1457 for Link 5
                        maximum  head error  = 0.0002 for Link p-547

     2:20:00: Balanced after 2 trials
   
     2:25:00: Balancing the network:

              Trial  1: relative flow change = 0.040531
              Trial  2: relative flow change = 0.005959
                        maximum  flow change = 1.7774 for Link PRV_inlet
                        maximum  head error  = 0.0000 for Link p-789

     2:25:00: Balanced after 2 trials
   
     2:30:00: Balancing the network:

              Trial  1: relative flow change = 0.032806
              Trial  2: relative flow change = 0.013700
              Trial  3: relative flow change = 0.001108
                        maximum  flow change = 0.7311 for Link 5
                        maximum  head error  = 0.0000 for Link 5

     2:30:00: Balanced after 3 trials
   
     2:35:00: Balancing the network:

              Trial  1: relative flow change = 0.037920
              Trial  2: relative flow change = 0.005706
                        maximum  flow change = 0.4678 for Link 5
                        maximum  head error  = 0.0002 for Link p-582

     2:35:00: Balanced after 2 trials
   
     2:40:00: Balancing the network:

              Trial  1: relative flow change = 0.031328
              Trial  2: relative flow change = 0.007461
                        maximum  flow change = 1.4966 for Link 5
                        maximum  head error  = 0.0001 for Link p-901

     2:40:00: Balanced after 2 trials
   
     2:45:00: Balancing the network:

              Trial  1: relative flow change = 0.037463
              Trial  2: relative flow change = 0.006666
                        maximum  flow change = 2.5509 for Link 5
                        maximum  head error  = 0.0000 for Link 5

     2:45:00: Balanced after 2 trials
   
     2:50:00: Balancing the network:

              Trial  1: relative flow change = 0.029269
              Trial  2: relative flow change = 0.004896
                        maximum  flow change = 1.7071 for Link 5
                        maximum  head error  = 0.0001 for Link p-582

     2:50:00: Balanced after 2 trials
   
     2:55:00: Balancing the network:

              Trial  1: relative flow change = 0.034301
              Trial  2: relative flow change = 0.004851
                        maximum  flow change = 1.6027 for Link 5
                        maximum  head error  = 0.0000 for Link p-115

     2:55:00: Balanced after 2 trials
   
     3:00:00: Balancing the network:

              Trial  1: relative flow change = 0.042304
              Trial  2: relative flow change = 0.005688
                        maximum  flow change = 1.3277 for Link 5
                        maximum  head error  = 0.0001 for Link p-1063

     3:00:00: Balanced after 2 trials
   
     3:05:00: Balancing the network:

              Trial  1: relative flow change = 0.044216
              Trial  2: relative flow change = 0.007795
                        maximum  flow change = 2.8330 for Link 5
                        maximum  head error  = 0.0001 for Link 5

     3:05:00: Balanced after 2 trials
   
     3:10:00: Balancing the network:

              Trial  1: relative flow change = 0.049530
              Trial  2: relative flow change = 0.009915
                        maximum  flow change = 4.2205 for Link 5
                        maximum  head error  = 0.0001 for Link 5

     3:10:00: Balanced after 2 trials
   
     3:15:00: Balancing the network:

              Trial  1: relative flow change = 0.033348
              Trial  2: relative flow change = 0.007214
                        maximum  flow change = 1.0513 for Link PRV_inlet
                        maximum  head error  = 0.0000 for Link p-11

     3:15:00: Balanced after 2 trials
   
     3:20:00: Balancing the network:

              Trial  1: relative flow change = 0.036967
              Trial  2: relative flow change = 0.011060
              Trial  3: relative flow change = 0.000725
                        maximum  flow change = 0.5484 for Link 5
                        maximum  head error  = 0.0000 for Link 5

     3:20:00: Balanced after 3 trials
   
     3:25:00: Balancing the network:

              Trial  1: relative flow change = 0.033435
              Trial  2: relative flow change = 0.012607
              Trial  3: relative flow change = 0.001082
                        maximum  flow change = 0.7091 for Link PRV_inlet
                        maximum  head error  = 0.0000 for Link 5

     3:25:00: Balanced after 3 trials
   
     3:30:00: Balancing the network:

              Trial  1: relative flow change = 0.041654
              Trial  2: relative flow change = 0.008853
                        maximum  flow change = 2.4950 for Link PRV_inlet
                        maximum  head error  = 0.0001 for Link p-582

     3:30:00: Balanced after 2 trials
   
     3:35:00: Balancing the network:

              Trial  1: relative flow change = 0.033135
              Trial  2: relative flow change = 0.008718
                        maximum  flow change = 0.7499 for Link PRV_inlet
                        maximum  head error  = 0.0002 for Link p-766

     3:35:00: Balanced after 2 trials
   
     3:40:00: Balancing the network:

              Trial  1: relative flow change = 0.039945
              Trial  2: relative flow change = 0.006321
                        maximum  flow change = 1.9942 for Link 5
                        maximum  head error  = 0.0001 for Link p-196

     3:40:00: Balanced after 2 trials
   
     3:45:00: Balancing the network:

              Trial  1: relative flow change = 0.045265
              Trial  2: relative flow change = 0.006489
                        maximum  flow change = 1.8361 for Link 5
                        maximum  head error  = 0.0000 for Link p-831

     3:45:00: Balanced after 2 trials
   
     3:50:00: Balancing the network:

              Trial  1: relative flow change = 0.055051
              Trial  2: relative flow change = 0.009590
                        maximum  flow change = 6.7528 for Link 5
                        maximum  head error  = 0.0003 for Link 5

     3:50:00: Balanced after 2 trials
   
     3:55:00: Balancing the network:

              Trial  1: relative flow change = 0.032320
              Trial  2: relative flow change = 0.006782
                        maximum  flow change = 1.3015 for Link PRV_inlet
                        maximum  head error  = 0.0000 for Link p-461

     3:55:00: Balanced after 2 trials
   
     4:00:00: Balancing the network:

              Trial  1: relative flow change = 0.068634
              Trial  2: relative flow change = 0.008830
                        maximum  flow change = 5.7693 for Link PRV_inlet
                        maximum  head error  = 0.0002 for Link 5

     4:00:00: Balanced after 2 trials
   
     4:05:00: Balancing the network:

              Trial  1: relative flow change = 0.044229
              Trial  2: relative flow change = 0.007745
                        maximum  flow change = 1.4206 for Link 5
                        maximum  head error  = 0.0003 for Link p-115

     4:05:00: Balanced after 2 trials
   
     4:10:00: Balancing the network:

              Trial  1: relative flow change = 0.070983
              Trial  2: relative flow change = 0.011645
              Trial  3: relative flow change = 0.000518
                        maximum  flow change = 0.3823 for Link PRV_inlet
                        maximum  head error  = 0.0000 for Link 5

     4:10:00: Balanced after 3 trials
   
     4:15:00: Balancing the network:

              Trial  1: relative flow change = 0.036393
              Trial  2: relative flow change = 0.009327
                        maximum  flow change = 0.5742 for Link PRV_dist
                        maximum  head error  = 0.0001 for Link p-461

     4:15:00: Balanced after 2 trials
   
     4:20:00: Balancing the network:

              Trial  1: relative flow change = 0.028781
              Trial  2: relative flow change = 0.008472
                        maximum  flow change = 1.4741 for Link PRV_inlet
                        maximum  head error  = 0.0001 for Link p-11

     4:20:00: Balanced after 2 trials
   
     4:25:00: Balancing the network:

              Trial  1: relative flow change = 0.058978
              Trial  2: relative flow change = 0.010744
              Trial  3: relative flow change = 0.000325
                        maximum  flow change = 0.2951 for Link PRV_inlet
                        maximum  head error  = 0.0000 for Link 5

     4:25:00: Balanced after 3 trials
   
     4:30:00: Balancing the network:

              Trial  1: relative flow change = 0.038685
              Trial  2: relative flow change = 0.005149
                        maximum  flow change = 1.6746 for Link PRV_inlet
                        maximum  head error  = 0.0000 for Link 5

     4:30:00: Balanced after 2 trials
   
     4:35:00: Balancing the network:

              Trial  1: relative flow change = 0.067726
              Trial  2: relative flow change = 0.013581
              Trial  3: relative flow change = 0.000558
                        maximum  flow change = 0.4877 for Link PRV_inlet
                        maximum  head error  = 0.0000 for Link 5

     4:35:00: Balanced after 3 trials
   
     4:40:00: Balancing the network:

              Trial  1: relative flow change = 0.062510
              Trial  2: relative flow change = 0.009095
                        maximum  flow change = 5.0837 for Link 5
                        maximum  head error  = 0.0002 for Link 5

     4:40:00: Balanced after 2 trials
   
     4:45:00: Balancing the network:

              Trial  1: relative flow change = 0.037549
              Trial  2: relative flow change = 0.008019
                        maximum  flow change = 3.5750 for Link PRV_inlet
                        maximum  head error  = 0.0002 for Link p-582

     4:45:00: Balanced after 2 trials
   
     4:50:00: Balancing the network:

              Trial  1: relative flow change = 0.050759
              Trial  2: relative flow change = 0.010996
              Trial  3: relative flow change = 0.000632
                        maximum  flow change = 0.5929 for Link 5
                        maximum  head error  = 0.0000 for Link 5

     4:50:00: Balanced after 3 trials
   
     4:55:00: Balancing the network:

              Trial  1: relative flow change = 0.040821
              Trial  2: relative flow change = 0.017131
              Trial  3: relative flow change = 0.001266
                        maximum  flow change = 1.1474 for Link PRV_inlet
                        maximum  head error  = 0.0000 for Link 5

     4:55:00: Balanced after 3 trials
   
     5:00:00: Balancing the network:

              Trial  1: relative flow change = 0.051683
              Trial  2: relative flow change = 0.008422
                        maximum  flow change = 2.0990 for Link 5
                        maximum  head error  = 0.0003 for Link p-582

     5:00:00: Balanced after 2 trials
   
     5:05:00: Balancing the network:

              Trial  1: relative flow change = 0.056645
              Trial  2: relative flow change = 0.010223
              Trial  3: relative flow change = 0.000245
                        maximum  flow change = 0.2674 for Link 5
                        maximum  head error  = 0.0000 for Link 5

     5:05:00: Balanced after 3 trials
   
     5:10:00: Balancing the network:

              Trial  1: relative flow change = 0.036856
              Trial  2: relative flow change = 0.014525
              Trial  3: relative flow change = 0.001383
                        maximum  flow change = 1.1059 for Link PRV_inlet
                        maximum  head error  = 0.0000 for Link p-243

     5:10:00: Balanced after 3 trials
   
     5:15:00: Balancing the network:

              Trial  1: relative flow change = 0.041677
              Trial  2: relative flow change = 0.005072
                        maximum  flow change = 2.8129 for Link 5
                        maximum  head error  = 0.0001 for Link p-196

     5:15:00: Balanced after 2 trials
   
     5:20:00: Balancing the network:

              Trial  1: relative flow change = 0.090313
              Trial  2: relative flow change = 0.019000
              Trial  3: relative flow change = 0.000903
                        maximum  flow change = 0.9493 for Link PRV_inlet
                        maximum  head error  = 0.0000 for Link 5

     5:20:00: Balanced after 3 trials
   
     5:25:00: Balancing the network:

              Trial  1: relative flow change = 0.027745
              Trial  2: relative flow change = 0.003578
                        maximum  flow change = 0.6812 for Link PRV_inlet
                        maximum  head error  = 0.0003 for Link p-831

     5:25:00: Balanced after 2 trials
   
     5:30:00: Balancing the network:

              Trial  1: relative flow change = 0.029145
              Trial  2: relative flow change = 0.002732
                        maximum  flow change = 0.3206 for Link PRV_inlet
                        maximum  head error  = 0.0000 for Link p-733

     5:30:00: Balanced after 2 trials
   
     5:35:00: Balancing the network:

              Trial  1: relative flow change = 0.038635
              Trial  2: relative flow change = 0.004536
                        maximum  flow change = 3.4603 for Link PRV_inlet
                        maximum  head error  = 0.0001 for Link p-766

     5:35:00: Balanced after 2 trials
   
     5:40:00: Balancing the network:

              Trial  1: relative flow change = 0.035837
              Trial  2: relative flow change = 0.004088
                        maximum  flow change = 2.5991 for Link 5
                        maximum  head error  = 0.0001 for Link p-547

     5:40:00: Balanced after 2 trials
   
     5:45:00: Balancing the network:

              Trial  1: relative flow change = 0.043365
              Trial  2: relative flow change = 0.010993
              Trial  3: relative flow change = 0.000655
                        maximum  flow change = 0.7490 for Link 5
                        maximum  head error  = 0.0000 for Link 5

     5:45:00: Balanced after 3 trials
   
     5:50:00: Balancing the network:

              Trial  1: relative flow change = 0.044096
              Trial  2: relative flow change = 0.014782
              Trial  3: relative flow change = 0.000983
                        maximum  flow change = 1.0614 for Link PRV_inlet
                        maximum  head error  = 0.0000 for Link p-831

     5:50:00: Balanced after 3 trials
   
     5:55:00: Balancing the network:

              Trial  1: relative flow change = 0.065776
              Trial  2: relative flow change = 0.014497
              Trial  3: relative flow change = 0.000665
                        maximum  flow change = 0.8317 for Link PRV_inlet
                        maximum  head error  = 0.0000 for Link 5

     5:55:00: Balanced after 3 trials
   
     6:00:00: Balancing the network:

              Trial  1: relative flow change = 0.056122
              Trial  2: relative flow change = 0.008131
                        maximum  flow change = 9.4284 for Link 5
                        maximum  head error  = 0.0005 for Link 5

     6:00:00: Balanced after 2 trials
   
     6:05:00: Balancing the network:

              Trial  1: relative flow change = 0.067520
              Trial  2: relative flow change = 0.013290
              Trial  3: relative flow change = 0.000739
                        maximum  flow change = 1.0494 for Link PRV_inlet
                        maximum  head error  = 0.0000 for Link p-196

     6:05:00: Balanced after 3 trials
   
     6:10:00: Balancing the network:

              Trial  1: relative flow change = 0.045412
              Trial  2: relative flow change = 0.005843
                        maximum  flow change = 2.6480 for Link 5
                        maximum  head error  = 0.0001 for Link p-413

     6:10:00: Balanced after 2 trials
   
     6:15:00: Balancing the network:

              Trial  1: relative flow change = 0.064695
              Trial  2: relative flow change = 0.023920
              Trial  3: relative flow change = 0.001547
                        maximum  flow change = 1.9775 for Link PRV_inlet
                        maximum  head error  = 0.0000 for Link 5

     6:15:00: Balanced after 3 trials
   
     6:20:00: Balancing the network:

              Trial  1: relative flow change = 0.034363
              Trial  2: relative flow change = 0.003741
                        maximum  flow change = 1.1589 for Link 5
                        maximum  head error  = 0.0001 for Link p-901

     6:20:00: Balanced after 2 trials
   
     6:25:00: Balancing the network:

              Trial  1: relative flow change = 0.039397
              Trial  2: relative flow change = 0.015213
              Trial  3: relative flow change = 0.001205
                        maximum  flow change = 1.5555 for Link 5
                        maximum  head error  = 0.0000 for Link 5

     6:25:00: Balanced after 3 trials
   
     6:30:00: Balancing the network:

              Trial  1: relative flow change = 0.046503
              Trial  2: relative flow change = 0.008558
                        maximum  flow change = 7.1777 for Link 5
                        maximum  head error  = 0.0003 for Link 5

     6:30:00: Balanced after 2 trials
   
     6:35:00: Balancing the network:

              Trial  1: relative flow change = 0.046943
              Trial  2: relative flow change = 0.013218
              Trial  3: relative flow change = 0.000793
                        maximum  flow change = 1.2323 for Link PRV_inlet
                        maximum  head error  = 0.0000 for Link 5

     6:35:00: Balanced after 3 trials
     6:35:00: Tank T_Zone is emptying at 5.50 m
   
     6:40:00: Balancing the network:

              Trial  1: relative flow change = 0.036657
              Trial  2: relative flow change = 0.011474
              Trial  3: relative flow change = 0.000722
                        maximum  flow change = 1.1184 for Link PRV_inlet
                        maximum  head error  = 0.0000 for Link 5

     6:40:00: Balanced after 3 trials
   
     6:45:00: Balancing the network:

              Trial  1: relative flow change = 0.036503
              Trial  2: relative flow change = 0.006628
                        maximum  flow change = 1.5252 for Link 5
                        maximum  head error  = 0.0002 for Link p-831

     6:45:00: Balanced after 2 trials
   
     6:50:00: Balancing the network:

              Trial  1: relative flow change = 0.052736
              Trial  2: relative flow change = 0.006247
                        maximum  flow change = 8.1873 for Link 5
                        maximum  head error  = 0.0004 for Link 5

     6:50:00: Balanced after 2 trials
   
     6:55:00: Balancing the network:

              Trial  1: relative flow change = 0.045160
              Trial  2: relative flow change = 0.005945
                        maximum  flow change = 5.6834 for Link 5
                        maximum  head error  = 0.0002 for Link 5

     6:55:00: Balanced after 2 trials
   
     7:00:00: Balancing the network:

              Trial  1: relative flow change = 0.043629
              Trial  2: relative flow change = 0.006718
                        maximum  flow change = 4.3792 for Link PRV_inlet
                        maximum  head error  = 0.0005 for Link p-582

     7:00:00: Balanced after 2 trials
   
     7:05:00: Balancing the network:

              Trial  1: relative flow change = 0.043113
              Trial  2: relative flow change = 0.007533
                        maximum  flow change = 4.8592 for Link 5
                        maximum  head error  = 0.0002 for Link p-831

     7:05:00: Balanced after 2 trials
   
     7:10:00: Balancing the network:

              Trial  1: relative flow change = 0.035107
              Trial  2: relative flow change = 0.004586
                        maximum  flow change = 0.5881 for Link p-1144
                        maximum  head error  = 0.0001 for Link p-11

     7:10:00: Balanced after 2 trials
   
     7:15:00: Balancing the network:

              Trial  1: relative flow change = 0.047792
              Trial  2: relative flow change = 0.007767
                        maximum  flow change = 8.4623 for Link PRV_inlet
                        maximum  head error  = 0.0004 for Link 5

     7:15:00: Balanced after 2 trials
   
     7:20:00: Balancing the network:

              Trial  1: relative flow change = 0.036753
              Trial  2: relative flow change = 0.007173
                        maximum  flow change = 3.3531 for Link 5
                        maximum  head error  = 0.0001 for Link p-461

     7:20:00: Balanced after 2 trials
   
     7:25:00: Balancing the network:

              Trial  1: relative flow change = 0.047967
              Trial  2: relative flow change = 0.007976
                        maximum  flow change = 10.6893 for Link 5
                        maximum  head error  = 0.0007 for Link 5

     7:25:00: Balanced after 2 trials
   
     7:30:00: Balancing the network:

              Trial  1: relative flow change = 0.037973
              Trial  2: relative flow change = 0.006307
                        maximum  flow change = 3.5424 for Link PRV_inlet
                        maximum  head error  = 0.0001 for Link p-733

     7:30:00: Balanced after 2 trials
   
     7:35:00: Balancing the network:

              Trial  1: relative flow change = 0.042101
              Trial  2: relative flow change = 0.008082
                        maximum  flow change = 6.1165 for Link 5
                        maximum  head error  = 0.0008 for Link p-243

     7:35:00: Balanced after 2 trials
   
     7:40:00: Balancing the network:

              Trial  1: relative flow change = 0.045014
              Trial  2: relative flow change = 0.004809
                        maximum  flow change = 0.5394 for Link p-1144
                        maximum  head error  = 0.0001 for Link p-11

     7:40:00: Balanced after 2 trials
   
     7:45:00: Balancing the network:

              Trial  1: relative flow change = 0.038365
              Trial  2: relative flow change = 0.002639
                        maximum  flow change = 0.2801 for Link PRV_inlet
                        maximum  head error  = 0.0001 for Link p-918

     7:45:00: Balanced after 2 trials
   
     7:50:00: Balancing the network:

              Trial  1: relative flow change = 0.031780
              Trial  2: relative flow change = 0.006123
                        maximum  flow change = 3.2800 for Link PRV_inlet
                        maximum  head error  = 0.0001 for Link p-11

     7:50:00: Balanced after 2 trials
   
     7:55:00: Balancing the network:

              Trial  1: relative flow change = 0.032474
              Trial  2: relative flow change = 0.011076
              Trial  3: relative flow change = 0.000803
                        maximum  flow change = 1.4460 for Link PRV_inlet
                        maximum  head error  = 0.0000 for Link 5

     7:55:00: Balanced after 3 trials
   
     8:00:00: Balancing the network:

              Trial  1: relative flow change = 0.042339
              Trial  2: relative flow change = 0.011645
              Trial  3: relative flow change = 0.000962
                        maximum  flow change = 1.5240 for Link PRV_inlet
                        maximum  head error  = 0.0000 for Link 5

     8:00:00: Balanced after 3 trials
   
     8:05:00: Balancing the network:

              Trial  1: relative flow change = 0.036932
              Trial  2: relative flow change = 0.007557
                        maximum  flow change = 1.9744 for Link PRV_inlet
                        maximum  head error  = 0.0002 for Link p-461

     8:05:00: Balanced after 2 trials
   
     8:10:00: Balancing the network:

              Trial  1: relative flow change = 0.031585
              Trial  2: relative flow change = 0.005030
                        maximum  flow change = 5.0271 for Link PRV_inlet
                        maximum  head error  = 0.0001 for Link 5

     8:10:00: Balanced after 2 trials
   
     8:15:00: Balancing the network:

              Trial  1: relative flow change = 0.055737
              Trial  2: relative flow change = 0.012120
              Trial  3: relative flow change = 0.000533
                        maximum  flow change = 0.9383 for Link PRV_inlet
                        maximum  head error  = 0.0000 for Link 5

     8:15:00: Balanced after 3 trials
   
     8:20:00: Balancing the network:

              Trial  1: relative flow change = 0.056371
              Trial  2: relative flow change = 0.016745
              Trial  3: relative flow change = 0.001054
                        maximum  flow change = 1.5708 for Link 5
                        maximum  head error  = 0.0000 for Link 5

     8:20:00: Balanced after 3 trials
   
     8:25:00: Balancing the network:

              Trial  1: relative flow change = 0.056770
              Trial  2: relative flow change = 0.010993
              Trial  3: relative flow change = 0.000462
                        maximum  flow change = 0.7527 for Link 5
                        maximum  head error  = 0.0000 for Link p-115

     8:25:00: Balanced after 3 trials
   
     8:30:00: Balancing the network:

              Trial  1: relative flow change = 0.048699
              Trial  2: relative flow change = 0.002863
                        maximum  flow change = 1.6112 for Link PRV_inlet
                        maximum  head error  = 0.0002 for Link p-901

     8:30:00: Balanced after 2 trials
   
     8:35:00: Balancing the network:

              Trial  1: relative flow change = 0.050480
              Trial  2: relative flow change = 0.007425
                        maximum  flow change = 7.9471 for Link 5
                        maximum  head error  = 0.0004 for Link p-901

     8:35:00: Balanced after 2 trials
   
     8:40:00: Balancing the network:

              Trial  1: relative flow change = 0.043614
              Trial  2: relative flow change = 0.005377
                        maximum  flow change = 0.6215 for Link PRV_dist
                        maximum  head error  = 0.0001 for Link p-831

     8:40:00: Balanced after 2 trials
   
     8:45:00: Balancing the network:

              Trial  1: relative flow change = 0.039348
              Trial  2: relative flow change = 0.004038
                        maximum  flow change = 4.2343 for Link 5
                        maximum  head error  = 0.0001 for Link 5

     8:45:00: Balanced after 2 trials
   
     8:50:00: Balancing the network:

              Trial  1: relative flow change = 0.056104
              Trial  2: relative flow change = 0.009935
                        maximum  flow change = 10.2931 for Link 5
                        maximum  head error  = 0.0006 for Link 5

     8:50:00: Balanced after 2 trials
   
     8:55:00: Balancing the network:

              Trial  1: relative flow change = 0.035379
              Trial  2: relative flow change = 0.003686
                        maximum  flow change = 1.5789 for Link 5
                        maximum  head error  = 0.0001 for Link p-766

     8:55:00: Balanced after 2 trials
   
     9:00:00: Balancing the network:

              Trial  1: relative flow change = 0.048892
              Trial  2: relative flow change = 0.006793
                        maximum  flow change = 7.9752 for Link 5
                        maximum  head error  = 0.0004 for Link 5

     9:00:00: Balanced after 2 trials
   
     9:05:00: Balancing the network:

              Trial  1: relative flow change = 0.041535
              Trial  2: relative flow change = 0.008491
                        maximum  flow change = 1.9474 for Link PRV_inlet
                        maximum  head error  = 0.0003 for Link p-973

     9:05:00: Balanced after 2 trials
   
     9:10:00: Balancing the network:

              Trial  1: relative flow change = 0.049672
              Trial  2: relative flow change = 0.004984
                        maximum  flow change = 3.9418 for Link 5
                        maximum  head error  = 0.0001 for Link p-733

     9:10:00: Balanced after 2 trials
   
     9:15:00: Balancing the network:

              Trial  1: relative flow change = 0.046665
              Trial  2: relative flow change = 0.008671
                        maximum  flow change = 5.5866 for Link 5
                        maximum  head error  = 0.0002 for Link 5

     9:15:00: Balanced after 2 trials
   
     9:20:00: Balancing the network:

              Trial  1: relative flow change = 0.051522
              Trial  2: relative flow change = 0.004731
                        maximum  flow change = 6.4973 for Link PRV_inlet
                        maximum  head error  = 0.0002 for Link 5

     9:20:00: Balanced after 2 trials
   
     9:25:00: Balancing the network:

              Trial  1: relative flow change = 0.042870
              Trial  2: relative flow change = 0.008530
                        maximum  flow change = 7.4798 for Link PRV_inlet
                        maximum  head error  = 0.0003 for Link 5

     9:25:00: Balanced after 2 trials
   
     9:30:00: Balancing the network:

              Trial  1: relative flow change = 0.029076
              Trial  2: relative flow change = 0.002366
                        maximum  flow change = 0.7099 for Link 5
                        maximum  head error  = 0.0001 for Link p-115

     9:30:00: Balanced after 2 trials
   
     9:35:00: Balancing the network:

              Trial  1: relative flow change = 0.056753
              Trial  2: relative flow change = 0.018640
              Trial  3: relative flow change = 0.001104
                        maximum  flow change = 1.7004 for Link 5
                        maximum  head error  = 0.0000 for Link 5

     9:35:00: Balanced after 3 trials
   
     9:40:00: Balancing the network:

              Trial  1: relative flow change = 0.037433
              Trial  2: relative flow change = 0.004999
                        maximum  flow change = 3.5178 for Link PRV_inlet
                        maximum  head error  = 0.0001 for Link 5

     9:40:00: Balanced after 2 trials
   
     9:45:00: Balancing the network:

              Trial  1: relative flow change = 0.036209
              Trial  2: relative flow change = 0.013588
              Trial  3: relative flow change = 0.001029
                        maximum  flow change = 1.3529 for Link PRV_inlet
                        maximum  head error  = 0.0000 for Link p-196

     9:45:00: Balanced after 3 trials
   
     9:50:00: Balancing the network:

              Trial  1: relative flow change = 0.036206
              Trial  2: relative flow change = 0.003721
                        maximum  flow change = 0.3314 for Link PRV_dist
                        maximum  head error  = 0.0003 for Link p-901

     9:50:00: Balanced after 2 trials
   
     9:55:00: Balancing the network:

              Trial  1: relative flow change = 0.034208
              Trial  2: relative flow change = 0.004016
                        maximum  flow change = 1.3849 for Link 5
                        maximum  head error  = 0.0000 for Link p-11

     9:55:00: Balanced after 2 trials
   
    10:00:00: Balancing the network:

              Trial  1: relative flow change = 0.054292
              Trial  2: relative flow change = 0.007210
                        maximum  flow change = 6.9634 for Link PRV_inlet
                        maximum  head error  = 0.0003 for Link 5

    10:00:00: Balanced after 2 trials
   
    10:05:00: Balancing the network:

              Trial  1: relative flow change = 0.070406
              Trial  2: relative flow change = 0.007110
                        maximum  flow change = 9.2692 for Link 5
                        maximum  head error  = 0.0005 for Link 5

    10:05:00: Balanced after 2 trials
   
    10:10:00: Balancing the network:

              Trial  1: relative flow change = 0.032826
              Trial  2: relative flow change = 0.005786
                        maximum  flow change = 0.7506 for Link 5
                        maximum  head error  = 0.0001 for Link p-582

    10:10:00: Balanced after 2 trials
   
    10:15:00: Balancing the network:

              Trial  1: relative flow change = 0.036125
              Trial  2: relative flow change = 0.003425
                        maximum  flow change = 1.4184 for Link PRV_inlet
                        maximum  head error  = 0.0003 for Link p-582

    10:15:00: Balanced after 2 trials
   
    10:20:00: Balancing the network:

              Trial  1: relative flow change = 0.044486
              Trial  2: relative flow change = 0.006181
                        maximum  flow change = 5.6124 for Link PRV_inlet
                        maximum  head error  = 0.0002 for Link 5

    10:20:00: Balanced after 2 trials
   
    10:25:00: Balancing the network:

              Trial  1: relative flow change = 0.065347
              Trial  2: relative flow change = 0.009358
                        maximum  flow change = 10.3559 for Link 5
                        maximum  head error  = 0.0006 for Link 5

    10:25:00: Balanced after 2 trials
   
    10:30:00: Balancing the network:

              Trial  1: relative flow change = 0.040504
              Trial  2: relative flow change = 0.003795
                        maximum  flow change = 0.8719 for Link 5
                        maximum  head error  = 0.0004 for Link p-547

    10:30:00: Balanced after 2 trials
   
    10:35:00: Balancing the network:

              Trial  1: relative flow change = 0.048587
              Trial  2: relative flow change = 0.007273
                        maximum  flow change = 5.7094 for Link PRV_inlet
                        maximum  head error  = 0.0003 for Link p-196

    10:35:00: Balanced after 2 trials
   
    10:40:00: Balancing the network:

              Trial  1: relative flow change = 0.068275
              Trial  2: relative flow change = 0.016411
              Trial  3: relative flow change = 0.000706
                        maximum  flow change = 0.9697 for Link PRV_inlet
                        maximum  head error  = 0.0000 for Link 5

    10:40:00: Balanced after 3 trials
   
    10:45:00: Balancing the network:

              Trial  1: relative flow change = 0.042352
              Trial  2: relative flow change = 0.008059
                        maximum  flow change = 2.9478 for Link 5
                        maximum  head error  = 0.0002 for Link p-547

    10:45:00: Balanced after 2 trials
   
    10:50:00: Balancing the network:

              Trial  1: relative flow change = 0.060973
              Trial  2: relative flow change = 0.011202
              Trial  3: relative flow change = 0.000332
                        maximum  flow change = 0.4892 for Link PRV_inlet
                        maximum  head error  = 0.0000 for Link 5

    10:50:00: Balanced after 3 trials
   
    10:55:00: Balancing the network:

              Trial  1: relative flow change = 0.055243
              Trial  2: relative flow change = 0.008025
                        maximum  flow change = 5.9476 for Link PRV_inlet
                        maximum  head error  = 0.0002 for Link 5

    10:55:00: Balanced after 2 trials
   
    11:00:00: Balancing the network:

              Trial  1: relative flow change = 0.056907
              Trial  2: relative flow change = 0.010626
              Trial  3: relative flow change = 0.000259
                        maximum  flow change = 0.3834 for Link PRV_inlet
                        maximum  head error  = 0.0000 for Link 5

    11:00:00: Balanced after 3 trials
   
    11:05:00: Balancing the network:

              Trial  1: relative flow change = 0.035410
              Trial  2: relative flow change = 0.004578
                        maximum  flow change = 5.3974 for Link PRV_inlet
                        maximum  head error  = 0.0002 for Link 5

    11:05:00: Balanced after 2 trials
   
    11:10:00: Balancing the network:

              Trial  1: relative flow change = 0.036441
              Trial  2: relative flow change = 0.007279
                        maximum  flow change = 1.7742 for Link 5
                        maximum  head error  = 0.0001 for Link p-879

    11:10:00: Balanced after 2 trials
   
    11:15:00: Balancing the network:

              Trial  1: relative flow change = 0.047791
              Trial  2: relative flow change = 0.016982
              Trial  3: relative flow change = 0.001295
                        maximum  flow change = 1.4840 for Link PRV_inlet
                        maximum  head error  = 0.0000 for Link p-901

    11:15:00: Balanced after 3 trials
   
    11:20:00: Balancing the network:

              Trial  1: relative flow change = 0.051114
              Trial  2: relative flow change = 0.005494
                        maximum  flow change = 5.8010 for Link PRV_inlet
                        maximum  head error  = 0.0002 for Link 5

    11:20:00: Balanced after 2 trials
   
    11:25:00: Balancing the network:

              Trial  1: relative flow change = 0.040121
              Trial  2: relative flow change = 0.005892
                        maximum  flow change = 5.8154 for Link PRV_inlet
                        maximum  head error  = 0.0002 for Link 5

    11:25:00: Balanced after 2 trials
   
    11:30:00: Balancing the network:

              Trial  1: relative flow change = 0.046540
              Trial  2: relative flow change = 0.005515
                        maximum  flow change = 5.2340 for Link PRV_inlet
                        maximum  head error  = 0.0002 for Link 5

    11:30:00: Balanced after 2 trials
   
    11:35:00: Balancing the network:

              Trial  1: relative flow change = 0.044776
              Trial  2: relative flow change = 0.007633
                        maximum  flow change = 5.1072 for Link 5
                        maximum  head error  = 0.0006 for Link p-582

    11:35:00: Balanced after 2 trials
   
    11:40:00: Balancing the network:

              Trial  1: relative flow change = 0.072552
              Trial  2: relative flow change = 0.011541
              Trial  3: relative flow change = 0.000250
                        maximum  flow change = 0.2487 for Link 5
                        maximum  head error  = 0.0000 for Link p-582

    11:40:00: Balanced after 3 trials
   
    11:45:00: Balancing the network:

              Trial  1: relative flow change = 0.064703
              Trial  2: relative flow change = 0.011387
              Trial  3: relative flow change = 0.000417
                        maximum  flow change = 0.1619 for Link PRV_inlet
                        maximum  head error  = 0.0000 for Link p-196

    11:45:00: Balanced after 3 trials
   
    11:50:00: Balancing the network:

              Trial  1: relative flow change = 0.078709
              Trial  2: relative flow change = 0.013396
              Trial  3: relative flow change = 0.000322
                        maximum  flow change = 0.4207 for Link 5
                        maximum  head error  = 0.0000 for Link 5

    11:50:00: Balanced after 3 trials
   
    11:55:00: Balancing the network:

              Trial  1: relative flow change = 0.030017
              Trial  2: relative flow change = 0.005415
                        maximum  flow change = 0.6468 for Link PRV_inlet
                        maximum  head error  = 0.0001 for Link p-461

    11:55:00: Balanced after 2 trials
   
    12:00:00: Balancing the network:

              Trial  1: relative flow change = 0.055492
              Trial  2: relative flow change = 0.008757
                        maximum  flow change = 9.7547 for Link PRV_inlet
                        maximum  head error  = 0.0006 for Link 5

    12:00:00: Balanced after 2 trials
   
    12:05:00: Balancing the network:

              Trial  1: relative flow change = 0.039664
              Trial  2: relative flow change = 0.011592
              Trial  3: relative flow change = 0.000843
                        maximum  flow change = 1.1506 for Link 5
                        maximum  head error  = 0.0000 for Link 5

    12:05:00: Balanced after 3 trials
   
    12:10:00: Balancing the network:

              Trial  1: relative flow change = 0.039511
              Trial  2: relative flow change = 0.006478
                        maximum  flow change = 0.6090 for Link p-1144
                        maximum  head error  = 0.0003 for Link p-582

    12:10:00: Balanced after 2 trials
   
    12:15:00: Balancing the network:

              Trial  1: relative flow change = 0.041554
              Trial  2: relative flow change = 0.006565
                        maximum  flow change = 4.2694 for Link 5
                        maximum  head error  = 0.0001 for Link 5

    12:15:00: Balanced after 2 trials
   
    12:20:00: Balancing the network:

              Trial  1: relative flow change = 0.036914
              Trial  2: relative flow change = 0.005899
                        maximum  flow change = 2.5879 for Link 5
                        maximum  head error  = 0.0006 for Link p-831

    12:20:00: Balanced after 2 trials
   
    12:25:00: Balancing the network:

              Trial  1: relative flow change = 0.039122
              Trial  2: relative flow change = 0.003759
                        maximum  flow change = 0.5412 for Link 5
                        maximum  head error  = 0.0001 for Link p-582

    12:25:00: Balanced after 2 trials
   
    12:30:00: Balancing the network:

              Trial  1: relative flow change = 0.038691
              Trial  2: relative flow change = 0.004753
                        maximum  flow change = 3.1122 for Link 5
                        maximum  head error  = 0.0001 for Link 5

    12:30:00: Balanced after 2 trials
   
    12:35:00: Balancing the network:

              Trial  1: relative flow change = 0.046206
              Trial  2: relative flow change = 0.007923
                        maximum  flow change = 6.6237 for Link 5
                        maximum  head error  = 0.0003 for Link 5

    12:35:00: Balanced after 2 trials
   
    12:40:00: Balancing the network:

              Trial  1: relative flow change = 0.042901
              Trial  2: relative flow change = 0.003080
                        maximum  flow change = 0.2259 for Link p-1144
                        maximum  head error  = 0.0001 for Link p-973

    12:40:00: Balanced after 2 trials
   
    12:45:00: Balancing the network:

              Trial  1: relative flow change = 0.072210
              Trial  2: relative flow change = 0.008197
                        maximum  flow change = 9.9478 for Link 5
                        maximum  head error  = 0.0006 for Link 5

    12:45:00: Balanced after 2 trials
   
    12:50:00: Balancing the network:

              Trial  1: relative flow change = 0.066982
              Trial  2: relative flow change = 0.011606
              Trial  3: relative flow change = 0.000343
                        maximum  flow change = 0.2748 for Link 5
                        maximum  head error  = 0.0000 for Link p-177

    12:50:00: Balanced after 3 trials
   
    12:55:00: Balancing the network:

              Trial  1: relative flow change = 0.047241
              Trial  2: relative flow change = 0.006886
                        maximum  flow change = 6.9836 for Link 5
                        maximum  head error  = 0.0003 for Link 5

    12:55:00: Balanced after 2 trials
   
    13:00:00: Balancing the network:

              Trial  1: relative flow change = 0.060614
              Trial  2: relative flow change = 0.016943
              Trial  3: relative flow change = 0.000998
                        maximum  flow change = 1.1548 for Link PRV_inlet
                        maximum  head error  = 0.0000 for Link 5

    13:00:00: Balanced after 3 trials
   
    13:05:00: Balancing the network:

              Trial  1: relative flow change = 0.092129
              Trial  2: relative flow change = 0.012958
              Trial  3: relative flow change = 0.000459
                        maximum  flow change = 0.1642 for Link PRV_inlet
                        maximum  head error  = 0.0001 for Link p-831

    13:05:00: Balanced after 3 trials
   
    13:10:00: Balancing the network:

              Trial  1: relative flow change = 0.051349
              Trial  2: relative flow change = 0.006651
                        maximum  flow change = 5.5192 for Link 5
                        maximum  head error  = 0.0002 for Link 5

    13:10:00: Balanced after 2 trials
   
    13:15:00: Balancing the network:

              Trial  1: relative flow change = 0.044088
              Trial  2: relative flow change = 0.023120
              Trial  3: relative flow change = 0.001916
                        maximum  flow change = 2.4314 for Link PRV_inlet
                        maximum  head error  = 0.0000 for Link 5

    13:15:00: Balanced after 3 trials
   
    13:20:00: Balancing the network:

              Trial  1: relative flow change = 0.079288
              Trial  2: relative flow change = 0.017167
              Trial  3: relative flow change = 0.000993
                        maximum  flow change = 1.1086 for Link PRV_inlet
                        maximum  head error  = 0.0000 for Link 5

    13:20:00: Balanced after 3 trials
   
    13:25:00: Balancing the network:

              Trial  1: relative flow change = 0.056783
              Trial  2: relative flow change = 0.007683
                        maximum  flow change = 4.1838 for Link 5
                        maximum  head error  = 0.0006 for Link p-196

    13:25:00: Balanced after 2 trials
   
    13:30:00: Balancing the network:

              Trial  1: relative flow change = 0.044459
              Trial  2: relative flow change = 0.010679
              Trial  3: relative flow change = 0.000549
                        maximum  flow change = 0.7168 for Link 5
                        maximum  head error  = 0.0000 for Link 5

    13:30:00: Balanced after 3 trials
   
    13:35:00: Balancing the network:

              Trial  1: relative flow change = 0.037509
              Trial  2: relative flow change = 0.003257
                        maximum  flow change = 2.3090 for Link PRV_inlet
                        maximum  head error  = 0.0000 for Link 5

    13:35:00: Balanced after 2 trials
   
    13:40:00: Balancing the network:

              Trial  1: relative flow change = 0.034422
              Trial  2: relative flow change = 0.007162
                        maximum  flow change = 0.7128 for Link p-1144
                        maximum  head error  = 0.0001 for Link p-461

    13:40:00: Balanced after 2 trials
   
    13:45:00: Balancing the network:

              Trial  1: relative flow change = 0.060324
              Trial  2: relative flow change = 0.007801
                        maximum  flow change = 9.6540 for Link 5
                        maximum  head error  = 0.0005 for Link 5

    13:45:00: Balanced after 2 trials
   
    13:50:00: Balancing the network:

              Trial  1: relative flow change = 0.059587
              Trial  2: relative flow change = 0.013885
              Trial  3: relative flow change = 0.000544
                        maximum  flow change = 0.7806 for Link 5
                        maximum  head error  = 0.0000 for Link 5

    13:50:00: Balanced after 3 trials
   
    13:55:00: Balancing the network:

              Trial  1: relative flow change = 0.037682
              Trial  2: relative flow change = 0.002511
                        maximum  flow change = 0.9179 for Link 5
                        maximum  head error  = 0.0001 for Link p-124

    13:55:00: Balanced after 2 trials
   
    14:00:00: Balancing the network:

              Trial  1: relative flow change = 0.036876
              Trial  2: relative flow change = 0.008930
                        maximum  flow change = 1.0091 for Link p-1144
                        maximum  head error  = 0.0002 for Link p-11

    14:00:00: Balanced after 2 trials
   
    14:05:00: Balancing the network:

              Trial  1: relative flow change = 0.059711
              Trial  2: relative flow change = 0.020140
              Trial  3: relative flow change = 0.001163
                        maximum  flow change = 1.3635 for Link 5
                        maximum  head error  = 0.0000 for Link 5

    14:05:00: Balanced after 3 trials
   
    14:10:00: Balancing the network:

              Trial  1: relative flow change = 0.038469
              Trial  2: relative flow change = 0.010724
              Trial  3: relative flow change = 0.000785
                        maximum  flow change = 1.0357 for Link PRV_inlet
                        maximum  head error  = 0.0000 for Link 5

    14:10:00: Balanced after 3 trials
   
    14:15:00: Balancing the network:

              Trial  1: relative flow change = 0.084823
              Trial  2: relative flow change = 0.014004
              Trial  3: relative flow change = 0.000168
                        maximum  flow change = 0.2081 for Link PRV_inlet
                        maximum  head error  = 0.0000 for Link p-582

    14:15:00: Balanced after 3 trials
   
    14:20:00: Balancing the network:

              Trial  1: relative flow change = 0.067569
              Trial  2: relative flow change = 0.020753
              Trial  3: relative flow change = 0.000993
                        maximum  flow change = 1.3297 for Link PRV_inlet
                        maximum  head error  = 0.0000 for Link 5

    14:20:00: Balanced after 3 trials
   
    14:25:00: Balancing the network:

              Trial  1: relative flow change = 0.038444
              Trial  2: relative flow change = 0.013233
              Trial  3: relative flow change = 0.000945
                        maximum  flow change = 1.1955 for Link PRV_inlet
                        maximum  head error  = 0.0000 for Link 5

    14:25:00: Balanced after 3 trials
   
    14:30:00: Balancing the network:

              Trial  1: relative flow change = 0.039359
              Trial  2: relative flow change = 0.003919
                        maximum  flow change = 0.3911 for Link p-1144
                        maximum  head error  = 0.0000 for Link p-11

    14:30:00: Balanced after 2 trials
   
    14:35:00: Balancing the network:

              Trial  1: relative flow change = 0.031456
              Trial  2: relative flow change = 0.001385
                        maximum  flow change = 0.0986 for Link p-1699
                        maximum  head error  = 0.0000 for Link p-678

    14:35:00: Balanced after 2 trials
   
    14:40:00: Balancing the network:

              Trial  1: relative flow change = 0.046493
              Trial  2: relative flow change = 0.005178
                        maximum  flow change = 1.5540 for Link 5
                        maximum  head error  = 0.0001 for Link p-766

    14:40:00: Balanced after 2 trials
   
    14:45:00: Balancing the network:

              Trial  1: relative flow change = 0.031776
              Trial  2: relative flow change = 0.004279
                        maximum  flow change = 2.1509 for Link 5
                        maximum  head error  = 0.0001 for Link p-729

    14:45:00: Balanced after 2 trials
   
    14:50:00: Balancing the network:

              Trial  1: relative flow change = 0.042614
              Trial  2: relative flow change = 0.005323
                        maximum  flow change = 5.2993 for Link 5
                        maximum  head error  = 0.0002 for Link 5

    14:50:00: Balanced after 2 trials
   
    14:55:00: Balancing the network:

              Trial  1: relative flow change = 0.040007
              Trial  2: relative flow change = 0.009402
                        maximum  flow change = 3.9790 for Link 5
                        maximum  head error  = 0.0001 for Link p-243

    14:55:00: Balanced after 2 trials
   
    15:00:00: Balancing the network:

              Trial  1: relative flow change = 0.066667
              Trial  2: relative flow change = 0.010350
              Trial  3: relative flow change = 0.000200
                        maximum  flow change = 0.3051 for Link 5
                        maximum  head error  = 0.0000 for Link 5

    15:00:00: Balanced after 3 trials
   
    15:05:00: Balancing the network:

              Trial  1: relative flow change = 0.064505
              Trial  2: relative flow change = 0.021734
              Trial  3: relative flow change = 0.001455
                        maximum  flow change = 1.8264 for Link PRV_inlet
                        maximum  head error  = 0.0000 for Link 5

    15:05:00: Balanced after 3 trials
   
    15:10:00: Balancing the network:

              Trial  1: relative flow change = 0.038442
              Trial  2: relative flow change = 0.004580
                        maximum  flow change = 2.5272 for Link PRV_inlet
                        maximum  head error  = 0.0001 for Link p-831

    15:10:00: Balanced after 2 trials
   
    15:15:00: Balancing the network:

              Trial  1: relative flow change = 0.035910
              Trial  2: relative flow change = 0.003511
                        maximum  flow change = 2.1563 for Link PRV_inlet
                        maximum  head error  = 0.0001 for Link p-973

    15:15:00: Balanced after 2 trials
   
    15:20:00: Balancing the network:

              Trial  1: relative flow change = 0.039318
              Trial  2: relative flow change = 0.002823
                        maximum  flow change = 0.6982 for Link 5
                        maximum  head error  = 0.0001 for Link p-901

    15:20:00: Balanced after 2 trials
   
    15:25:00: Balancing the network:

              Trial  1: relative flow change = 0.031350
              Trial  2: relative flow change = 0.005117
                        maximum  flow change = 0.5425 for Link p-1144
                        maximum  head error  = 0.0001 for Link p-226

    15:25:00: Balanced after 2 trials
   
    15:30:00: Balancing the network:

              Trial  1: relative flow change = 0.045549
              Trial  2: relative flow change = 0.008114
                        maximum  flow change = 5.2800 for Link 5
                        maximum  head error  = 0.0002 for Link 5

    15:30:00: Balanced after 2 trials
   
    15:35:00: Balancing the network:

              Trial  1: relative flow change = 0.057970
              Trial  2: relative flow change = 0.018415
              Trial  3: relative flow change = 0.001100
                        maximum  flow change = 1.4092 for Link PRV_inlet
                        maximum  head error  = 0.0000 for Link p-196

    15:35:00: Balanced after 3 trials
   
    15:40:00: Balancing the network:

              Trial  1: relative flow change = 0.036208
              Trial  2: relative flow change = 0.006925
                        maximum  flow change = 1.5906 for Link 5
                        maximum  head error  = 0.0002 for Link p-729

    15:40:00: Balanced after 2 trials
   
    15:45:00: Balancing the network:

              Trial  1: relative flow change = 0.057634
              Trial  2: relative flow change = 0.012704
              Trial  3: relative flow change = 0.000887
                        maximum  flow change = 1.0728 for Link 5
                        maximum  head error  = 0.0000 for Link 5

    15:45:00: Balanced after 3 trials
   
    15:50:00: Balancing the network:

              Trial  1: relative flow change = 0.041623
              Trial  2: relative flow change = 0.009986
                        maximum  flow change = 1.2719 for Link 5
                        maximum  head error  = 0.0002 for Link p-461

    15:50:00: Balanced after 2 trials
   
    15:55:00: Balancing the network:

              Trial  1: relative flow change = 0.037897
              Trial  2: relative flow change = 0.002896
                        maximum  flow change = 0.5823 for Link PRV_inlet
                        maximum  head error  = 0.0001 for Link p-789

    15:55:00: Balanced after 2 trials
   
    16:00:00: Balancing the network:

              Trial  1: relative flow change = 0.056552
              Trial  2: relative flow change = 0.008743
                        maximum  flow change = 5.4174 for Link PRV_inlet
                        maximum  head error  = 0.0002 for Link 5

    16:00:00: Balanced after 2 trials
   
    16:05:00: Balancing the network:

              Trial  1: relative flow change = 0.048165
              Trial  2: relative flow change = 0.007034
                        maximum  flow change = 5.6035 for Link PRV_inlet
                        maximum  head error  = 0.0002 for Link p-177

    16:05:00: Balanced after 2 trials
   
    16:10:00: Balancing the network:

              Trial  1: relative flow change = 0.038350
              Trial  2: relative flow change = 0.008176
                        maximum  flow change = 3.0029 for Link 5
                        maximum  head error  = 0.0003 for Link p-766

    16:10:00: Balanced after 2 trials
   
    16:15:00: Balancing the network:

              Trial  1: relative flow change = 0.042649
              Trial  2: relative flow change = 0.008760
                        maximum  flow change = 2.7894 for Link 5
                        maximum  head error  = 0.0002 for Link p-243

    16:15:00: Balanced after 2 trials
   
    16:20:00: Balancing the network:

              Trial  1: relative flow change = 0.049608
              Trial  2: relative flow change = 0.016436
              Trial  3: relative flow change = 0.000998
                        maximum  flow change = 1.4378 for Link 5
                        maximum  head error  = 0.0000 for Link 5

    16:20:00: Balanced after 3 trials
   
    16:25:00: Balancing the network:

              Trial  1: relative flow change = 0.034811
              Trial  2: relative flow change = 0.011884
              Trial  3: relative flow change = 0.000853
                        maximum  flow change = 1.1921 for Link PRV_inlet
                        maximum  head error  = 0.0000 for Link 5

    16:25:00: Balanced after 3 trials
   
    16:30:00: Balancing the network:

              Trial  1: relative flow change = 0.051400
              Trial  2: relative flow change = 0.014487
              Trial  3: relative flow change = 0.000715
                        maximum  flow change = 1.0125 for Link 5
                        maximum  head error  = 0.0000 for Link 5

    16:30:00: Balanced after 3 trials
   
    16:35:00: Balancing the network:

              Trial  1: relative flow change = 0.035823
              Trial  2: relative flow change = 0.005748
                        maximum  flow change = 3.1009 for Link PRV_inlet
                        maximum  head error  = 0.0001 for Link p-196

    16:35:00: Balanced after 2 trials
   
    16:40:00: Balancing the network:

              Trial  1: relative flow change = 0.061584
              Trial  2: relative flow change = 0.011751
              Trial  3: relative flow change = 0.000388
                        maximum  flow change = 0.5340 for Link 5
                        maximum  head error  = 0.0000 for Link p-196

    16:40:00: Balanced after 3 trials
   
    16:45:00: Balancing the network:

              Trial  1: relative flow change = 0.040163
              Trial  2: relative flow change = 0.006793
                        maximum  flow change = 1.7330 for Link 5
                        maximum  head error  = 0.0001 for Link p-11

    16:45:00: Balanced after 2 trials
   
    16:50:00: Balancing the network:

              Trial  1: relative flow change = 0.048279
              Trial  2: relative flow change = 0.010243
              Trial  3: relative flow change = 0.000665
                        maximum  flow change = 0.6618 for Link 5
                        maximum  head error  = 0.0000 for Link p-582

    16:50:00: Balanced after 3 trials
   
    16:55:00: Balancing the network:

              Trial  1: relative flow change = 0.074258
              Trial  2: relative flow change = 0.011953
              Trial  3: relative flow change = 0.000563
                        maximum  flow change = 0.6611 for Link PRV_inlet
                        maximum  head error  = 0.0000 for Link p-901

    16:55:00: Balanced after 3 trials
   
    17:00:00: Balancing the network:

              Trial  1: relative flow change = 0.032729
              Trial  2: relative flow change = 0.008451
                        maximum  flow change = 5.0523 for Link PRV_inlet
                        maximum  head error  = 0.0001 for Link 5

    17:00:00: Balanced after 2 trials
   
    17:05:00: Balancing the network:

              Trial  1: relative flow change = 0.050131
              Trial  2: relative flow change = 0.010466
              Trial  3: relative flow change = 0.000465
                        maximum  flow change = 0.5627 for Link 5
                        maximum  head error  = 0.0000 for Link 5

    17:05:00: Balanced after 3 trials
   
    17:10:00: Balancing the network:

              Trial  1: relative flow change = 0.052534
              Trial  2: relative flow change = 0.007807
                        maximum  flow change = 7.5251 for Link PRV_inlet
                        maximum  head error  = 0.0003 for Link 5

    17:10:00: Balanced after 2 trials
   
    17:15:00: Balancing the network:

              Trial  1: relative flow change = 0.055687
              Trial  2: relative flow change = 0.010660
              Trial  3: relative flow change = 0.000831
                        maximum  flow change = 0.8164 for Link PRV_inlet
                        maximum  head error  = 0.0000 for Link p-733

    17:15:00: Balanced after 3 trials
   
    17:20:00: Balancing the network:

              Trial  1: relative flow change = 0.042713
              Trial  2: relative flow change = 0.003041
                        maximum  flow change = 1.2303 for Link PRV_inlet
                        maximum  head error  = 0.0003 for Link p-831

    17:20:00: Balanced after 2 trials
   
    17:25:00: Balancing the network:

              Trial  1: relative flow change = 0.040024
              Trial  2: relative flow change = 0.002389
                        maximum  flow change = 1.3266 for Link PRV_inlet
                        maximum  head error  = 0.0000 for Link p-1477

    17:25:00: Balanced after 2 trials
   
    17:30:00: Balancing the network:

              Trial  1: relative flow change = 0.035002
              Trial  2: relative flow change = 0.002870
                        maximum  flow change = 1.1589 for Link PRV_inlet
                        maximum  head error  = 0.0000 for Link p-547

    17:30:00: Balanced after 2 trials
   
    17:35:00: Balancing the network:

              Trial  1: relative flow change = 0.049324
              Trial  2: relative flow change = 0.009156
                        maximum  flow change = 6.4529 for Link PRV_inlet
                        maximum  head error  = 0.0002 for Link 5

    17:35:00: Balanced after 2 trials
   
    17:40:00: Balancing the network:

              Trial  1: relative flow change = 0.053919
              Trial  2: relative flow change = 0.007503
                        maximum  flow change = 7.8934 for Link PRV_inlet
                        maximum  head error  = 0.0004 for Link 5

    17:40:00: Balanced after 2 trials
   
    17:45:00: Balancing the network:

              Trial  1: relative flow change = 0.037371
              Trial  2: relative flow change = 0.006244
                        maximum  flow change = 3.4656 for Link PRV_inlet
                        maximum  head error  = 0.0001 for Link p-243

    17:45:00: Balanced after 2 trials
   
    17:50:00: Balancing the network:

              Trial  1: relative flow change = 0.030296
              Trial  2: relative flow change = 0.002774
                        maximum  flow change = 2.3188 for Link 5
                        maximum  head error  = 0.0000 for Link 5

    17:50:00: Balanced after 2 trials
   
    17:55:00: Balancing the network:

              Trial  1: relative flow change = 0.041121
              Trial  2: relative flow change = 0.005603
                        maximum  flow change = 1.7687 for Link PRV_inlet
                        maximum  head error  = 0.0003 for Link p-582

    17:55:00: Balanced after 2 trials
   
    18:00:00: Balancing the network:

              Trial  1: relative flow change = 0.080359
              Trial  2: relative flow change = 0.019576
              Trial  3: relative flow change = 0.000992
                        maximum  flow change = 1.3353 for Link PRV_inlet
                        maximum  head error  = 0.0000 for Link p-196

    18:00:00: Balanced after 3 trials
   
    18:05:00: Balancing the network:

              Trial  1: relative flow change = 0.094755
              Trial  2: relative flow change = 0.024531
              Trial  3: relative flow change = 0.001564
                        maximum  flow change = 1.5877 for Link PRV_inlet
                        maximum  head error  = 0.0004 for Link p-582

    18:05:00: Balanced after 3 trials
   
    18:10:00: Balancing the network:

              Trial  1: relative flow change = 0.058590
              Trial  2: relative flow change = 0.007946
                        maximum  flow change = 10.8839 for Link PRV_inlet
                        maximum  head error  = 0.0007 for Link 5

    18:10:00: Balanced after 2 trials
   
    18:15:00: Balancing the network:

              Trial  1: relative flow change = 0.029956
              Trial  2: relative flow change = 0.003582
                        maximum  flow change = 0.4598 for Link 5
                        maximum  head error  = 0.0003 for Link p-582

    18:15:00: Balanced after 2 trials
   
    18:20:00: Balancing the network:

              Trial  1: relative flow change = 0.039686
              Trial  2: relative flow change = 0.007230
                        maximum  flow change = 3.1623 for Link PRV_inlet
                        maximum  head error  = 0.0001 for Link p-733

    18:20:00: Balanced after 2 trials
   
    18:25:00: Balancing the network:

              Trial  1: relative flow change = 0.059964
              Trial  2: relative flow change = 0.012448
              Trial  3: relative flow change = 0.000524
                        maximum  flow change = 0.7928 for Link PRV_inlet
                        maximum  head error  = 0.0000 for Link 5

    18:25:00: Balanced after 3 trials
   
    18:30:00: Balancing the network:

              Trial  1: relative flow change = 0.037007
              Trial  2: relative flow change = 0.007799
                        maximum  flow change = 5.0273 for Link 5
                        maximum  head error  = 0.0002 for Link p-733

    18:30:00: Balanced after 2 trials
   
    18:35:00: Balancing the network:

              Trial  1: relative flow change = 0.033686
              Trial  2: relative flow change = 0.013084
              Trial  3: relative flow change = 0.001046
                        maximum  flow change = 1.3593 for Link PRV_inlet
                        maximum  head error  = 0.0000 for Link 5

    18:35:00: Balanced after 3 trials
   
    18:40:00: Balancing the network:

              Trial  1: relative flow change = 0.059355
              Trial  2: relative flow change = 0.016558
              Trial  3: relative flow change = 0.000908
                        maximum  flow change = 1.2852 for Link PRV_inlet
                        maximum  head error  = 0.0000 for Link p-196

    18:40:00: Balanced after 3 trials
   
    18:45:00: Balancing the network:

              Trial  1: relative flow change = 0.040229
              Trial  2: relative flow change = 0.003231
                        maximum  flow change = 3.5858 for Link 5
                        maximum  head error  = 0.0001 for Link 5

    18:45:00: Balanced after 2 trials
   
    18:50:00: Balancing the network:

              Trial  1: relative flow change = 0.044446
[...]

   211:25:00: Balanced after 3 trials
   
   211:30:00: Balancing the network:

              Trial  1: relative flow change = 0.036451
              Trial  2: relative flow change = 0.005030
                        maximum  flow change = 2.8056 for Link 5
                        maximum  head error  = 0.0001 for Link p-243

   211:30:00: Balanced after 2 trials
   
   211:35:00: Balancing the network:

              Trial  1: relative flow change = 0.061754
              Trial  2: relative flow change = 0.006819
                        maximum  flow change = 7.4319 for Link 5
                        maximum  head error  = 0.0008 for Link p-547

   211:35:00: Balanced after 2 trials
   
   211:40:00: Balancing the network:

              Trial  1: relative flow change = 0.043237
              Trial  2: relative flow change = 0.006666
                        maximum  flow change = 4.5471 for Link PRV_inlet
                        maximum  head error  = 0.0005 for Link p-582

   211:40:00: Balanced after 2 trials
   
   211:45:00: Balancing the network:

              Trial  1: relative flow change = 0.033504
              Trial  2: relative flow change = 0.002333
                        maximum  flow change = 0.8119 for Link PRV_inlet
                        maximum  head error  = 0.0000 for Link p-789

   211:45:00: Balanced after 2 trials
   
   211:50:00: Balancing the network:

              Trial  1: relative flow change = 0.056465
              Trial  2: relative flow change = 0.007418
                        maximum  flow change = 8.4640 for Link 5
                        maximum  head error  = 0.0004 for Link 5

   211:50:00: Balanced after 2 trials
   
   211:55:00: Balancing the network:

              Trial  1: relative flow change = 0.039418
              Trial  2: relative flow change = 0.006605
                        maximum  flow change = 2.2242 for Link 5
                        maximum  head error  = 0.0001 for Link p-115

   211:55:00: Balanced after 2 trials
   
   212:00:00: Balancing the network:

              Trial  1: relative flow change = 0.039975
              Trial  2: relative flow change = 0.005772
                        maximum  flow change = 4.4171 for Link PRV_inlet
                        maximum  head error  = 0.0001 for Link 5

   212:00:00: Balanced after 2 trials
   
   212:05:00: Balancing the network:

              Trial  1: relative flow change = 0.046365
              Trial  2: relative flow change = 0.005687
                        maximum  flow change = 6.3102 for Link 5
                        maximum  head error  = 0.0002 for Link 5

   212:05:00: Balanced after 2 trials
   
   212:10:00: Balancing the network:

              Trial  1: relative flow change = 0.054306
              Trial  2: relative flow change = 0.008940
                        maximum  flow change = 10.3376 for Link PRV_inlet
                        maximum  head error  = 0.0006 for Link 5

   212:10:00: Balanced after 2 trials
   
   212:15:00: Balancing the network:

              Trial  1: relative flow change = 0.035986
              Trial  2: relative flow change = 0.007081
                        maximum  flow change = 1.8312 for Link 5
                        maximum  head error  = 0.0004 for Link p-115

   212:15:00: Balanced after 2 trials
   
   212:20:00: Balancing the network:

              Trial  1: relative flow change = 0.036654
              Trial  2: relative flow change = 0.005354
                        maximum  flow change = 1.4349 for Link PRV_inlet
                        maximum  head error  = 0.0002 for Link p-1477

   212:20:00: Balanced after 2 trials
   
   212:25:00: Balancing the network:

              Trial  1: relative flow change = 0.057462
              Trial  2: relative flow change = 0.008379
                        maximum  flow change = 0.6757 for Link PRV_dist
                        maximum  head error  = 0.0007 for Link p-831

   212:25:00: Balanced after 2 trials
   
   212:30:00: Balancing the network:

              Trial  1: relative flow change = 0.060637
              Trial  2: relative flow change = 0.007811
                        maximum  flow change = 7.7039 for Link 5
                        maximum  head error  = 0.0003 for Link 5

   212:30:00: Balanced after 2 trials
   
   212:35:00: Balancing the network:

              Trial  1: relative flow change = 0.036664
              Trial  2: relative flow change = 0.007713
                        maximum  flow change = 4.7874 for Link PRV_inlet
                        maximum  head error  = 0.0005 for Link p-582

   212:35:00: Balanced after 2 trials
   
   212:40:00: Balancing the network:

              Trial  1: relative flow change = 0.042170
              Trial  2: relative flow change = 0.006576
                        maximum  flow change = 3.9528 for Link PRV_inlet
                        maximum  head error  = 0.0001 for Link 5

   212:40:00: Balanced after 2 trials
   
   212:45:00: Balancing the network:

              Trial  1: relative flow change = 0.031901
              Trial  2: relative flow change = 0.003797
                        maximum  flow change = 0.3102 for Link p-1144
                        maximum  head error  = 0.0001 for Link p-1063

   212:45:00: Balanced after 2 trials
   
   212:50:00: Balancing the network:

              Trial  1: relative flow change = 0.042299
              Trial  2: relative flow change = 0.004016
                        maximum  flow change = 2.4747 for Link 5
                        maximum  head error  = 0.0001 for Link p-948

   212:50:00: Balanced after 2 trials
   
   212:55:00: Balancing the network:

              Trial  1: relative flow change = 0.044214
              Trial  2: relative flow change = 0.007200
                        maximum  flow change = 3.0389 for Link PRV_inlet
                        maximum  head error  = 0.0001 for Link p-278

   212:55:00: Balanced after 2 trials
   
   213:00:00: Balancing the network:

              Trial  1: relative flow change = 0.038567
              Trial  2: relative flow change = 0.009065
                        maximum  flow change = 5.0837 for Link PRV_inlet
                        maximum  head error  = 0.0002 for Link 5

   213:00:00: Balanced after 2 trials
   
   213:05:00: Balancing the network:

              Trial  1: relative flow change = 0.042214
              Trial  2: relative flow change = 0.012793
              Trial  3: relative flow change = 0.001007
                        maximum  flow change = 1.3280 for Link PRV_inlet
                        maximum  head error  = 0.0000 for Link 5

   213:05:00: Balanced after 3 trials
   
   213:10:00: Balancing the network:

              Trial  1: relative flow change = 0.048724
              Trial  2: relative flow change = 0.012642
              Trial  3: relative flow change = 0.000675
                        maximum  flow change = 0.8561 for Link PRV_inlet
                        maximum  head error  = 0.0000 for Link 5

   213:10:00: Balanced after 3 trials
   
   213:15:00: Balancing the network:

              Trial  1: relative flow change = 0.036305
              Trial  2: relative flow change = 0.004714
                        maximum  flow change = 0.8003 for Link 5
                        maximum  head error  = 0.0001 for Link p-766

   213:15:00: Balanced after 2 trials
   
   213:20:00: Balancing the network:

              Trial  1: relative flow change = 0.043892
              Trial  2: relative flow change = 0.003071
                        maximum  flow change = 1.4402 for Link 5
                        maximum  head error  = 0.0000 for Link p-901

   213:20:00: Balanced after 2 trials
   
   213:25:00: Balancing the network:

              Trial  1: relative flow change = 0.040887
              Trial  2: relative flow change = 0.002889
                        maximum  flow change = 0.3267 for Link p-226
                        maximum  head error  = 0.0001 for Link p-177

   213:25:00: Balanced after 2 trials
   
   213:30:00: Balancing the network:

              Trial  1: relative flow change = 0.036799
              Trial  2: relative flow change = 0.002060
                        maximum  flow change = 0.8603 for Link PRV_inlet
                        maximum  head error  = 0.0002 for Link p-766

   213:30:00: Balanced after 2 trials
   
   213:35:00: Balancing the network:

              Trial  1: relative flow change = 0.098789
              Trial  2: relative flow change = 0.017247
              Trial  3: relative flow change = 0.000718
                        maximum  flow change = 0.7638 for Link 5
                        maximum  head error  = 0.0000 for Link 5

   213:35:00: Balanced after 3 trials
   
   213:40:00: Balancing the network:

              Trial  1: relative flow change = 0.031602
              Trial  2: relative flow change = 0.008006
                        maximum  flow change = 1.7636 for Link PRV_inlet
                        maximum  head error  = 0.0001 for Link p-461

   213:40:00: Balanced after 2 trials
   
   213:45:00: Balancing the network:

              Trial  1: relative flow change = 0.032529
              Trial  2: relative flow change = 0.004926
                        maximum  flow change = 1.3095 for Link 5
                        maximum  head error  = 0.0000 for Link p-901

   213:45:00: Balanced after 2 trials
   
   213:50:00: Balancing the network:

              Trial  1: relative flow change = 0.038908
              Trial  2: relative flow change = 0.007504
                        maximum  flow change = 2.3673 for Link 5
                        maximum  head error  = 0.0001 for Link p-461

   213:50:00: Balanced after 2 trials
   
   213:55:00: Balancing the network:

              Trial  1: relative flow change = 0.064055
              Trial  2: relative flow change = 0.009225
                        maximum  flow change = 8.2726 for Link PRV_inlet
                        maximum  head error  = 0.0004 for Link 5

   213:55:00: Balanced after 2 trials
   213:55:00: Tank T_Zone is filling at 4.29 m
   
   214:00:00: Balancing the network:

              Trial  1: relative flow change = 0.052694
              Trial  2: relative flow change = 0.011585
              Trial  3: relative flow change = 0.000738
                        maximum  flow change = 0.8048 for Link PRV_inlet
                        maximum  head error  = 0.0000 for Link p-196

   214:00:00: Balanced after 3 trials
   214:00:00: Tank T_Zone is emptying at 4.29 m
   
   214:05:00: Balancing the network:

              Trial  1: relative flow change = 0.041874
              Trial  2: relative flow change = 0.014626
              Trial  3: relative flow change = 0.000967
                        maximum  flow change = 1.0107 for Link 5
                        maximum  head error  = 0.0001 for Link p-196

   214:05:00: Balanced after 3 trials
   214:05:00: Tank T_Zone is filling at 4.29 m
   
   214:10:00: Balancing the network:

              Trial  1: relative flow change = 0.030447
              Trial  2: relative flow change = 0.007300
                        maximum  flow change = 2.5675 for Link 5
                        maximum  head error  = 0.0004 for Link p-831

   214:10:00: Balanced after 2 trials
   
   214:15:00: Balancing the network:

              Trial  1: relative flow change = 0.081936
              Trial  2: relative flow change = 0.010490
              Trial  3: relative flow change = 0.000147
                        maximum  flow change = 0.1162 for Link PRV_inlet
                        maximum  head error  = 0.0000 for Link 5

   214:15:00: Balanced after 3 trials
   
   214:20:00: Balancing the network:

              Trial  1: relative flow change = 0.046009
              Trial  2: relative flow change = 0.017841
              Trial  3: relative flow change = 0.001241
                        maximum  flow change = 1.2497 for Link PRV_inlet
                        maximum  head error  = 0.0000 for Link p-196

   214:20:00: Balanced after 3 trials
   
   214:25:00: Balancing the network:

              Trial  1: relative flow change = 0.042309
              Trial  2: relative flow change = 0.016942
              Trial  3: relative flow change = 0.001227
                        maximum  flow change = 1.2154 for Link PRV_inlet
                        maximum  head error  = 0.0000 for Link 5

   214:25:00: Balanced after 3 trials
   
   214:30:00: Balancing the network:

              Trial  1: relative flow change = 0.043168
              Trial  2: relative flow change = 0.006049
                        maximum  flow change = 4.1378 for Link 5
                        maximum  head error  = 0.0004 for Link p-547

   214:30:00: Balanced after 2 trials
   
   214:35:00: Balancing the network:

              Trial  1: relative flow change = 0.041331
              Trial  2: relative flow change = 0.016158
              Trial  3: relative flow change = 0.001286
                        maximum  flow change = 1.2290 for Link PRV_inlet
                        maximum  head error  = 0.0000 for Link 5

   214:35:00: Balanced after 3 trials
   
   214:40:00: Balancing the network:

              Trial  1: relative flow change = 0.040637
              Trial  2: relative flow change = 0.015400
              Trial  3: relative flow change = 0.001261
                        maximum  flow change = 1.2081 for Link PRV_inlet
                        maximum  head error  = 0.0000 for Link 5

   214:40:00: Balanced after 3 trials
   
   214:45:00: Balancing the network:

              Trial  1: relative flow change = 0.032986
              Trial  2: relative flow change = 0.003489
                        maximum  flow change = 0.2772 for Link 5
                        maximum  head error  = 0.0001 for Link p-831

   214:45:00: Balanced after 2 trials
   
   214:50:00: Balancing the network:

              Trial  1: relative flow change = 0.047417
              Trial  2: relative flow change = 0.013764
              Trial  3: relative flow change = 0.001065
                        maximum  flow change = 0.9509 for Link 5
                        maximum  head error  = 0.0000 for Link 5

   214:50:00: Balanced after 3 trials
   
   214:55:00: Balancing the network:

              Trial  1: relative flow change = 0.042564
              Trial  2: relative flow change = 0.015876
              Trial  3: relative flow change = 0.001208
                        maximum  flow change = 1.0065 for Link PRV_inlet
                        maximum  head error  = 0.0000 for Link 5

   214:55:00: Balanced after 3 trials
   
   215:00:00: Balancing the network:

              Trial  1: relative flow change = 0.031433
              Trial  2: relative flow change = 0.003950
                        maximum  flow change = 1.4919 for Link 5
                        maximum  head error  = 0.0001 for Link p-973

   215:00:00: Balanced after 2 trials
   
   215:05:00: Balancing the network:

              Trial  1: relative flow change = 0.037983
              Trial  2: relative flow change = 0.003465
                        maximum  flow change = 1.0758 for Link PRV_inlet
                        maximum  head error  = 0.0003 for Link p-582

   215:05:00: Balanced after 2 trials
   
   215:10:00: Balancing the network:

              Trial  1: relative flow change = 0.034467
              Trial  2: relative flow change = 0.009351
                        maximum  flow change = 2.0314 for Link PRV_inlet
                        maximum  head error  = 0.0001 for Link p-582

   215:10:00: Balanced after 2 trials
   
   215:15:00: Balancing the network:

              Trial  1: relative flow change = 0.046985
              Trial  2: relative flow change = 0.007745
                        maximum  flow change = 3.4846 for Link 5
                        maximum  head error  = 0.0001 for Link 5

   215:15:00: Balanced after 2 trials
   
   215:20:00: Balancing the network:

              Trial  1: relative flow change = 0.033922
              Trial  2: relative flow change = 0.004300
                        maximum  flow change = 0.9638 for Link PRV_inlet
                        maximum  head error  = 0.0002 for Link p-582

   215:20:00: Balanced after 2 trials
   
   215:25:00: Balancing the network:

              Trial  1: relative flow change = 0.037929
              Trial  2: relative flow change = 0.005311
                        maximum  flow change = 0.8570 for Link 5
                        maximum  head error  = 0.0001 for Link p-582

   215:25:00: Balanced after 2 trials
   
   215:30:00: Balancing the network:

              Trial  1: relative flow change = 0.081808
              Trial  2: relative flow change = 0.025397
              Trial  3: relative flow change = 0.001625
                        maximum  flow change = 1.1965 for Link 5
                        maximum  head error  = 0.0000 for Link p-766

   215:30:00: Balanced after 3 trials
   
   215:35:00: Balancing the network:

              Trial  1: relative flow change = 0.045760
              Trial  2: relative flow change = 0.015712
              Trial  3: relative flow change = 0.001561
                        maximum  flow change = 1.0805 for Link PRV_inlet
                        maximum  head error  = 0.0000 for Link p-243

   215:35:00: Balanced after 3 trials
   
   215:40:00: Balancing the network:

              Trial  1: relative flow change = 0.035734
              Trial  2: relative flow change = 0.007994
                        maximum  flow change = 1.5121 for Link PRV_inlet
                        maximum  head error  = 0.0000 for Link p-461

   215:40:00: Balanced after 2 trials
   
   215:45:00: Balancing the network:

              Trial  1: relative flow change = 0.025343
              Trial  2: relative flow change = 0.014640
              Trial  3: relative flow change = 0.001362
                        maximum  flow change = 1.0924 for Link PRV_inlet
                        maximum  head error  = 0.0000 for Link 5

   215:45:00: Balanced after 3 trials
   
   215:50:00: Balancing the network:

              Trial  1: relative flow change = 0.044990
              Trial  2: relative flow change = 0.014512
              Trial  3: relative flow change = 0.001012
                        maximum  flow change = 0.7189 for Link PRV_inlet
                        maximum  head error  = 0.0000 for Link 5

   215:50:00: Balanced after 3 trials
   
   215:55:00: Balancing the network:

              Trial  1: relative flow change = 0.031441
              Trial  2: relative flow change = 0.008063
                        maximum  flow change = 1.6102 for Link 5
                        maximum  head error  = 0.0001 for Link p-582

   215:55:00: Balanced after 2 trials
   
   216:00:00: Balancing the network:

              Trial  1: relative flow change = 0.064591
              Trial  2: relative flow change = 0.008689
                        maximum  flow change = 6.2953 for Link 5
                        maximum  head error  = 0.0003 for Link 5

   216:00:00: Balanced after 2 trials
   
  Hydraulic Flow Balance (m3/h)
  ================================
  Total Inflow:           380.000
  Consumer Demand:        387.333
  Demand Deficit:           0.000
  Emitter Flow:             0.000
  Leakage Flow:             0.000
  Total Outflow:          387.333
  Storage Flow:            -7.321
  Flow Ratio:               1.000
  ================================

  Water Quality Mass Balance (mg)
  ================================
  Initial Mass:       0.00000e+00
  Mass Inflow:        4.92486e+07
  Mass Outflow:       8.86093e+06
  Mass Reacted:       3.80972e+07
  Final Mass:         2.29076e+06
  Mass Ratio:         1.00001
  Total Segments:     953
  ================================

  Analysis ended Tue Apr 21 09:09:56 2026
