  Page 1                                    Tue Apr 21 09:26:09 2026

  ******************************************************************
  *                           E P A N E T                          *
  *                   Hydraulic and Water Quality                  *
  *                   Analysis for Pipe Networks                   *
  *                          Version 2.3.04                        *
  ******************************************************************
  
  Processing MSX input file CY-DBP_competition_stream_competition_6days_7.msx
  
  Analysis begun Tue Apr 21 09:26:10 2026

   
  Hydraulic Status:
  -----------------------------------------------------------------------
     0:00:00: Balancing the network:

              Trial  1: relative flow change = 1.750520
              PRV PRV_inlet switched from active to closed
              Trial  2: relative flow change = 0.546641
              PRV PRV_dist switched from active to open
              PRV PRV_inlet switched from closed to active
              Trial  3: relative flow change = 0.439220
              PRV PRV_dist switched from open to active
              Trial  4: relative flow change = 0.250694
              Trial  5: relative flow change = 0.058966
              Trial  6: relative flow change = 0.015875
              Trial  7: relative flow change = 0.002527
                        maximum  flow change = 0.4217 for Link p-733
                        maximum  head error  = 0.0006 for Link p-831

     0:00:00: Balanced after 7 trials
     0:00:00: Reservoir WTP is emptying
     0:00:00: Tank T_Zone is filling at 5.00 m
   
     0:05:00: Balancing the network:

              Trial  1: relative flow change = 0.083386
              Trial  2: relative flow change = 0.016725
              Trial  3: relative flow change = 0.000626
                        maximum  flow change = 0.5905 for Link PRV_inlet
                        maximum  head error  = 0.0000 for Link 5

     0:05:00: Balanced after 3 trials
   
     0:10:00: Balancing the network:

              Trial  1: relative flow change = 0.031022
              Trial  2: relative flow change = 0.004304
                        maximum  flow change = 1.3550 for Link 5
                        maximum  head error  = 0.0000 for Link p-115

     0:10:00: Balanced after 2 trials
   
     0:15:00: Balancing the network:

              Trial  1: relative flow change = 0.032812
              Trial  2: relative flow change = 0.003676
                        maximum  flow change = 0.2619 for Link p-1144
                        maximum  head error  = 0.0000 for Link p-901

     0:15:00: Balanced after 2 trials
   
     0:20:00: Balancing the network:

              Trial  1: relative flow change = 0.063418
              Trial  2: relative flow change = 0.009369
                        maximum  flow change = 0.8585 for Link PRV_inlet
                        maximum  head error  = 0.0001 for Link p-243

     0:20:00: Balanced after 2 trials
   
     0:25:00: Balancing the network:

              Trial  1: relative flow change = 0.065971
              Trial  2: relative flow change = 0.014708
              Trial  3: relative flow change = 0.000673
                        maximum  flow change = 0.5054 for Link 5
                        maximum  head error  = 0.0000 for Link 5

     0:25:00: Balanced after 3 trials
   
     0:30:00: Balancing the network:

              Trial  1: relative flow change = 0.048063
              Trial  2: relative flow change = 0.009356
                        maximum  flow change = 3.0291 for Link PRV_inlet
                        maximum  head error  = 0.0001 for Link p-196

     0:30:00: Balanced after 2 trials
   
     0:35:00: Balancing the network:

              Trial  1: relative flow change = 0.034941
              Trial  2: relative flow change = 0.005722
                        maximum  flow change = 1.7271 for Link PRV_inlet
                        maximum  head error  = 0.0000 for Link p-243

     0:35:00: Balanced after 2 trials
   
     0:40:00: Balancing the network:

              Trial  1: relative flow change = 0.034653
              Trial  2: relative flow change = 0.007179
                        maximum  flow change = 2.1127 for Link PRV_inlet
                        maximum  head error  = 0.0001 for Link p-733

     0:40:00: Balanced after 2 trials
   
     0:45:00: Balancing the network:

              Trial  1: relative flow change = 0.059267
              Trial  2: relative flow change = 0.013725
              Trial  3: relative flow change = 0.000584
                        maximum  flow change = 0.4996 for Link 5
                        maximum  head error  = 0.0000 for Link 5

     0:45:00: Balanced after 3 trials
   
     0:50:00: Balancing the network:

              Trial  1: relative flow change = 0.054102
              Trial  2: relative flow change = 0.008506
                        maximum  flow change = 5.2953 for Link 5
                        maximum  head error  = 0.0002 for Link 5

     0:50:00: Balanced after 2 trials
   
     0:55:00: Balancing the network:

              Trial  1: relative flow change = 0.047182
              Trial  2: relative flow change = 0.012193
              Trial  3: relative flow change = 0.000994
                        maximum  flow change = 0.6756 for Link PRV_inlet
                        maximum  head error  = 0.0000 for Link 5

     0:55:00: Balanced after 3 trials
   
     1:00:00: Balancing the network:

              Trial  1: relative flow change = 0.071579
              Trial  2: relative flow change = 0.010665
              Trial  3: relative flow change = 0.000161
                        maximum  flow change = 0.0545 for Link PRV_inlet
                        maximum  head error  = 0.0000 for Link p-1098

     1:00:00: Balanced after 3 trials
   
     1:05:00: Balancing the network:

              Trial  1: relative flow change = 0.035260
              Trial  2: relative flow change = 0.003292
                        maximum  flow change = 0.8000 for Link PRV_inlet
                        maximum  head error  = 0.0001 for Link p-582

     1:05:00: Balanced after 2 trials
   
     1:10:00: Balancing the network:

              Trial  1: relative flow change = 0.041545
              Trial  2: relative flow change = 0.008928
                        maximum  flow change = 2.6763 for Link PRV_inlet
                        maximum  head error  = 0.0001 for Link p-831

     1:10:00: Balanced after 2 trials
   
     1:15:00: Balancing the network:

              Trial  1: relative flow change = 0.054695
              Trial  2: relative flow change = 0.016278
              Trial  3: relative flow change = 0.001083
                        maximum  flow change = 0.6918 for Link 5
                        maximum  head error  = 0.0000 for Link p-547

     1:15:00: Balanced after 3 trials
   
     1:20:00: Balancing the network:

              Trial  1: relative flow change = 0.047307
              Trial  2: relative flow change = 0.009125
                        maximum  flow change = 3.6422 for Link PRV_inlet
                        maximum  head error  = 0.0002 for Link p-831

     1:20:00: Balanced after 2 trials
   
     1:25:00: Balancing the network:

              Trial  1: relative flow change = 0.062361
              Trial  2: relative flow change = 0.010109
              Trial  3: relative flow change = 0.000306
                        maximum  flow change = 0.2510 for Link PRV_inlet
                        maximum  head error  = 0.0000 for Link p-766

     1:25:00: Balanced after 3 trials
   
     1:30:00: Balancing the network:

              Trial  1: relative flow change = 0.050649
              Trial  2: relative flow change = 0.007117
                        maximum  flow change = 4.6074 for Link PRV_inlet
                        maximum  head error  = 0.0001 for Link p-547

     1:30:00: Balanced after 2 trials
   
     1:35:00: Balancing the network:

              Trial  1: relative flow change = 0.030750
              Trial  2: relative flow change = 0.004083
                        maximum  flow change = 0.1985 for Link PRV_dist
                        maximum  head error  = 0.0001 for Link p-248

     1:35:00: Balanced after 2 trials
   
     1:40:00: Balancing the network:

              Trial  1: relative flow change = 0.056826
              Trial  2: relative flow change = 0.008229
                        maximum  flow change = 5.7473 for Link PRV_inlet
                        maximum  head error  = 0.0002 for Link 5

     1:40:00: Balanced after 2 trials
   
     1:45:00: Balancing the network:

              Trial  1: relative flow change = 0.043996
              Trial  2: relative flow change = 0.004813
                        maximum  flow change = 2.6100 for Link 5
                        maximum  head error  = 0.0000 for Link 5

     1:45:00: Balanced after 2 trials
   
     1:50:00: Balancing the network:

              Trial  1: relative flow change = 0.077228
              Trial  2: relative flow change = 0.011050
              Trial  3: relative flow change = 0.000094
                        maximum  flow change = 0.0156 for Link 5
                        maximum  head error  = 0.0000 for Link p-729

     1:50:00: Balanced after 3 trials
   
     1:55:00: Balancing the network:

              Trial  1: relative flow change = 0.030878
              Trial  2: relative flow change = 0.004422
                        maximum  flow change = 1.1395 for Link PRV_inlet
                        maximum  head error  = 0.0004 for Link p-831

     1:55:00: Balanced after 2 trials
   
     2:00:00: Balancing the network:

              Trial  1: relative flow change = 0.052010
              Trial  2: relative flow change = 0.011570
              Trial  3: relative flow change = 0.000872
                        maximum  flow change = 0.6921 for Link PRV_inlet
                        maximum  head error  = 0.0000 for Link 5

     2:00:00: Balanced after 3 trials
   
     2:05:00: Balancing the network:

              Trial  1: relative flow change = 0.061494
              Trial  2: relative flow change = 0.013515
              Trial  3: relative flow change = 0.001231
                        maximum  flow change = 0.7288 for Link 5
                        maximum  head error  = 0.0000 for Link 5

     2:05:00: Balanced after 3 trials
   
     2:10:00: Balancing the network:

              Trial  1: relative flow change = 0.036541
              Trial  2: relative flow change = 0.004606
                        maximum  flow change = 0.9743 for Link PRV_inlet
                        maximum  head error  = 0.0000 for Link p-196

     2:10:00: Balanced after 2 trials
   
     2:15:00: Balancing the network:

              Trial  1: relative flow change = 0.071884
              Trial  2: relative flow change = 0.010246
              Trial  3: relative flow change = 0.000243
                        maximum  flow change = 0.1449 for Link PRV_inlet
                        maximum  head error  = 0.0000 for Link p-461

     2:15:00: Balanced after 3 trials
   
     2:20:00: Balancing the network:

              Trial  1: relative flow change = 0.067521
              Trial  2: relative flow change = 0.015920
              Trial  3: relative flow change = 0.000947
                        maximum  flow change = 0.6092 for Link PRV_inlet
                        maximum  head error  = 0.0000 for Link 5

     2:20:00: Balanced after 3 trials
   
     2:25:00: Balancing the network:

              Trial  1: relative flow change = 0.029358
              Trial  2: relative flow change = 0.009193
                        maximum  flow change = 0.5295 for Link PRV_dist
                        maximum  head error  = 0.0002 for Link p-733

     2:25:00: Balanced after 2 trials
   
     2:30:00: Balancing the network:

              Trial  1: relative flow change = 0.071182
              Trial  2: relative flow change = 0.009009
                        maximum  flow change = 5.9622 for Link 5
                        maximum  head error  = 0.0002 for Link 5

     2:30:00: Balanced after 2 trials
   
     2:35:00: Balancing the network:

              Trial  1: relative flow change = 0.058470
              Trial  2: relative flow change = 0.007419
                        maximum  flow change = 5.1012 for Link PRV_inlet
                        maximum  head error  = 0.0002 for Link 5

     2:35:00: Balanced after 2 trials
   
     2:40:00: Balancing the network:

              Trial  1: relative flow change = 0.049738
              Trial  2: relative flow change = 0.007758
                        maximum  flow change = 1.3689 for Link 5
                        maximum  head error  = 0.0001 for Link p-461

     2:40:00: Balanced after 2 trials
   
     2:45:00: Balancing the network:

              Trial  1: relative flow change = 0.038512
              Trial  2: relative flow change = 0.007451
                        maximum  flow change = 2.0421 for Link PRV_inlet
                        maximum  head error  = 0.0000 for Link 5

     2:45:00: Balanced after 2 trials
   
     2:50:00: Balancing the network:

              Trial  1: relative flow change = 0.046183
              Trial  2: relative flow change = 0.005040
                        maximum  flow change = 1.7966 for Link 5
                        maximum  head error  = 0.0001 for Link p-831

     2:50:00: Balanced after 2 trials
   
     2:55:00: Balancing the network:

              Trial  1: relative flow change = 0.031765
              Trial  2: relative flow change = 0.008982
                        maximum  flow change = 1.9383 for Link PRV_inlet
                        maximum  head error  = 0.0001 for Link p-789

     2:55:00: Balanced after 2 trials
   
     3:00:00: Balancing the network:

              Trial  1: relative flow change = 0.034477
              Trial  2: relative flow change = 0.009980
                        maximum  flow change = 2.5383 for Link PRV_inlet
                        maximum  head error  = 0.0001 for Link p-1098

     3:00:00: Balanced after 2 trials
   
     3:05:00: Balancing the network:

              Trial  1: relative flow change = 0.036755
              Trial  2: relative flow change = 0.005725
                        maximum  flow change = 0.8047 for Link 5
                        maximum  head error  = 0.0002 for Link p-729

     3:05:00: Balanced after 2 trials
   
     3:10:00: Balancing the network:

              Trial  1: relative flow change = 0.075073
              Trial  2: relative flow change = 0.011693
              Trial  3: relative flow change = 0.000231
                        maximum  flow change = 0.0581 for Link PRV_inlet
                        maximum  head error  = 0.0000 for Link p-124

     3:10:00: Balanced after 3 trials
   
     3:15:00: Balancing the network:

              Trial  1: relative flow change = 0.075594
              Trial  2: relative flow change = 0.013511
              Trial  3: relative flow change = 0.000495
                        maximum  flow change = 0.3081 for Link PRV_inlet
                        maximum  head error  = 0.0000 for Link p-196

     3:15:00: Balanced after 3 trials
   
     3:20:00: Balancing the network:

              Trial  1: relative flow change = 0.042191
              Trial  2: relative flow change = 0.009978
                        maximum  flow change = 1.1447 for Link PRV_inlet
                        maximum  head error  = 0.0001 for Link p-973

     3:20:00: Balanced after 2 trials
   
     3:25:00: Balancing the network:

              Trial  1: relative flow change = 0.063148
              Trial  2: relative flow change = 0.009369
                        maximum  flow change = 4.2745 for Link 5
                        maximum  head error  = 0.0002 for Link p-547

     3:25:00: Balanced after 2 trials
   
     3:30:00: Balancing the network:

              Trial  1: relative flow change = 0.039252
              Trial  2: relative flow change = 0.005998
                        maximum  flow change = 1.6179 for Link 5
                        maximum  head error  = 0.0000 for Link p-839

     3:30:00: Balanced after 2 trials
   
     3:35:00: Balancing the network:

              Trial  1: relative flow change = 0.042670
              Trial  2: relative flow change = 0.003690
                        maximum  flow change = 0.7844 for Link 5
                        maximum  head error  = 0.0001 for Link p-196

     3:35:00: Balanced after 2 trials
   
     3:40:00: Balancing the network:

              Trial  1: relative flow change = 0.032392
              Trial  2: relative flow change = 0.004857
                        maximum  flow change = 0.2833 for Link p-1144
                        maximum  head error  = 0.0001 for Link p-831

     3:40:00: Balanced after 2 trials
   
     3:45:00: Balancing the network:

              Trial  1: relative flow change = 0.045781
              Trial  2: relative flow change = 0.004876
                        maximum  flow change = 0.3041 for Link PRV_dist
                        maximum  head error  = 0.0001 for Link p-918

     3:45:00: Balanced after 2 trials
   
     3:50:00: Balancing the network:

              Trial  1: relative flow change = 0.049481
              Trial  2: relative flow change = 0.013060
              Trial  3: relative flow change = 0.000783
                        maximum  flow change = 0.5924 for Link 5
                        maximum  head error  = 0.0000 for Link 5

     3:50:00: Balanced after 3 trials
   
     3:55:00: Balancing the network:

              Trial  1: relative flow change = 0.052116
              Trial  2: relative flow change = 0.006812
                        maximum  flow change = 2.6090 for Link PRV_inlet
                        maximum  head error  = 0.0004 for Link p-831

     3:55:00: Balanced after 2 trials
   
     4:00:00: Balancing the network:

              Trial  1: relative flow change = 0.055644
              Trial  2: relative flow change = 0.006965
                        maximum  flow change = 4.0755 for Link PRV_inlet
                        maximum  head error  = 0.0007 for Link p-831

     4:00:00: Balanced after 2 trials
   
     4:05:00: Balancing the network:

              Trial  1: relative flow change = 0.047466
              Trial  2: relative flow change = 0.008334
                        maximum  flow change = 3.2104 for Link 5
                        maximum  head error  = 0.0002 for Link p-196

     4:05:00: Balanced after 2 trials
   
     4:10:00: Balancing the network:

              Trial  1: relative flow change = 0.086131
              Trial  2: relative flow change = 0.014087
              Trial  3: relative flow change = 0.000471
                        maximum  flow change = 0.1520 for Link 5
                        maximum  head error  = 0.0000 for Link p-901

     4:10:00: Balanced after 3 trials
   
     4:15:00: Balancing the network:

              Trial  1: relative flow change = 0.060979
              Trial  2: relative flow change = 0.014936
              Trial  3: relative flow change = 0.000558
                        maximum  flow change = 0.5054 for Link 5
                        maximum  head error  = 0.0000 for Link p-196

     4:15:00: Balanced after 3 trials
   
     4:20:00: Balancing the network:

              Trial  1: relative flow change = 0.066038
              Trial  2: relative flow change = 0.010718
              Trial  3: relative flow change = 0.000486
                        maximum  flow change = 0.2676 for Link 5
                        maximum  head error  = 0.0000 for Link p-729

     4:20:00: Balanced after 3 trials
   
     4:25:00: Balancing the network:

              Trial  1: relative flow change = 0.047075
              Trial  2: relative flow change = 0.008729
                        maximum  flow change = 3.1421 for Link 5
                        maximum  head error  = 0.0001 for Link 5

     4:25:00: Balanced after 2 trials
   
     4:30:00: Balancing the network:

              Trial  1: relative flow change = 0.072884
              Trial  2: relative flow change = 0.010115
              Trial  3: relative flow change = 0.000203
                        maximum  flow change = 0.0907 for Link PRV_inlet
                        maximum  head error  = 0.0000 for Link p-901

     4:30:00: Balanced after 3 trials
   
     4:35:00: Balancing the network:

              Trial  1: relative flow change = 0.057185
              Trial  2: relative flow change = 0.004601
                        maximum  flow change = 0.2749 for Link p-733
                        maximum  head error  = 0.0002 for Link p-831

     4:35:00: Balanced after 2 trials
   
     4:40:00: Balancing the network:

              Trial  1: relative flow change = 0.057863
              Trial  2: relative flow change = 0.011045
              Trial  3: relative flow change = 0.000567
                        maximum  flow change = 0.5703 for Link 5
                        maximum  head error  = 0.0000 for Link 5

     4:40:00: Balanced after 3 trials
   
     4:45:00: Balancing the network:

              Trial  1: relative flow change = 0.051792
              Trial  2: relative flow change = 0.010426
              Trial  3: relative flow change = 0.000565
                        maximum  flow change = 0.5927 for Link PRV_inlet
                        maximum  head error  = 0.0000 for Link 5

     4:45:00: Balanced after 3 trials
   
     4:50:00: Balancing the network:

              Trial  1: relative flow change = 0.040558
              Trial  2: relative flow change = 0.008591
                        maximum  flow change = 7.0941 for Link 5
                        maximum  head error  = 0.0003 for Link 5

     4:50:00: Balanced after 2 trials
   
     4:55:00: Balancing the network:

              Trial  1: relative flow change = 0.057587
              Trial  2: relative flow change = 0.009689
                        maximum  flow change = 8.2302 for Link PRV_inlet
                        maximum  head error  = 0.0004 for Link 5

     4:55:00: Balanced after 2 trials
   
     5:00:00: Balancing the network:

              Trial  1: relative flow change = 0.044733
              Trial  2: relative flow change = 0.006148
                        maximum  flow change = 2.6156 for Link 5
                        maximum  head error  = 0.0001 for Link p-11

     5:00:00: Balanced after 2 trials
   
     5:05:00: Balancing the network:

              Trial  1: relative flow change = 0.042979
              Trial  2: relative flow change = 0.005598
                        maximum  flow change = 1.6960 for Link 5
                        maximum  head error  = 0.0001 for Link p-1499

     5:05:00: Balanced after 2 trials
   
     5:10:00: Balancing the network:

              Trial  1: relative flow change = 0.068230
              Trial  2: relative flow change = 0.008733
                        maximum  flow change = 7.6696 for Link PRV_inlet
                        maximum  head error  = 0.0004 for Link 5

     5:10:00: Balanced after 2 trials
   
     5:15:00: Balancing the network:

              Trial  1: relative flow change = 0.046107
              Trial  2: relative flow change = 0.007796
                        maximum  flow change = 2.6717 for Link 5
                        maximum  head error  = 0.0001 for Link p-901

     5:15:00: Balanced after 2 trials
   
     5:20:00: Balancing the network:

              Trial  1: relative flow change = 0.072134
              Trial  2: relative flow change = 0.009918
                        maximum  flow change = 11.4518 for Link PRV_inlet
                        maximum  head error  = 0.0008 for Link 5

     5:20:00: Balanced after 2 trials
   
     5:25:00: Balancing the network:

              Trial  1: relative flow change = 0.074387
              Trial  2: relative flow change = 0.013824
              Trial  3: relative flow change = 0.000483
                        maximum  flow change = 0.5825 for Link 5
                        maximum  head error  = 0.0000 for Link 5

     5:25:00: Balanced after 3 trials
   
     5:30:00: Balancing the network:

              Trial  1: relative flow change = 0.073256
              Trial  2: relative flow change = 0.008070
                        maximum  flow change = 8.5233 for Link PRV_inlet
                        maximum  head error  = 0.0005 for Link 5

     5:30:00: Balanced after 2 trials
   
     5:35:00: Balancing the network:

              Trial  1: relative flow change = 0.046887
              Trial  2: relative flow change = 0.007333
                        maximum  flow change = 5.1652 for Link 5
                        maximum  head error  = 0.0002 for Link p-124

     5:35:00: Balanced after 2 trials
   
     5:40:00: Balancing the network:

              Trial  1: relative flow change = 0.041416
              Trial  2: relative flow change = 0.010475
              Trial  3: relative flow change = 0.000790
                        maximum  flow change = 1.0752 for Link 5
                        maximum  head error  = 0.0000 for Link 5

     5:40:00: Balanced after 3 trials
   
     5:45:00: Balancing the network:

              Trial  1: relative flow change = 0.060905
              Trial  2: relative flow change = 0.016448
              Trial  3: relative flow change = 0.000871
                        maximum  flow change = 1.1356 for Link PRV_inlet
                        maximum  head error  = 0.0000 for Link p-196

     5:45:00: Balanced after 3 trials
   
     5:50:00: Balancing the network:

              Trial  1: relative flow change = 0.055835
              Trial  2: relative flow change = 0.007618
                        maximum  flow change = 2.8542 for Link 5
                        maximum  head error  = 0.0002 for Link p-901

     5:50:00: Balanced after 2 trials
   
     5:55:00: Balancing the network:

              Trial  1: relative flow change = 0.040347
              Trial  2: relative flow change = 0.004326
                        maximum  flow change = 2.2351 for Link PRV_inlet
                        maximum  head error  = 0.0001 for Link p-1491

     5:55:00: Balanced after 2 trials
   
     6:00:00: Balancing the network:

              Trial  1: relative flow change = 0.058124
              Trial  2: relative flow change = 0.017549
              Trial  3: relative flow change = 0.000801
                        maximum  flow change = 1.2676 for Link PRV_inlet
                        maximum  head error  = 0.0000 for Link 5

     6:00:00: Balanced after 3 trials
   
     6:05:00: Balancing the network:

              Trial  1: relative flow change = 0.051819
              Trial  2: relative flow change = 0.008163
                        maximum  flow change = 7.1836 for Link PRV_inlet
                        maximum  head error  = 0.0003 for Link 5

     6:05:00: Balanced after 2 trials
   
     6:10:00: Balancing the network:

              Trial  1: relative flow change = 0.057617
              Trial  2: relative flow change = 0.003868
                        maximum  flow change = 0.7680 for Link PRV_inlet
                        maximum  head error  = 0.0007 for Link p-547

     6:10:00: Balanced after 2 trials
   
     6:15:00: Balancing the network:

              Trial  1: relative flow change = 0.042120
              Trial  2: relative flow change = 0.008541
                        maximum  flow change = 4.0283 for Link PRV_inlet
                        maximum  head error  = 0.0003 for Link p-766

     6:15:00: Balanced after 2 trials
     6:15:00: Tank T_Zone is emptying at 5.45 m
   
     6:20:00: Balancing the network:

              Trial  1: relative flow change = 0.042151
              Trial  2: relative flow change = 0.015817
              Trial  3: relative flow change = 0.001102
                        maximum  flow change = 1.9505 for Link PRV_inlet
                        maximum  head error  = 0.0000 for Link 5

     6:20:00: Balanced after 3 trials
   
     6:25:00: Balancing the network:

              Trial  1: relative flow change = 0.066448
              Trial  2: relative flow change = 0.010310
              Trial  3: relative flow change = 0.000388
                        maximum  flow change = 0.5961 for Link 5
                        maximum  head error  = 0.0000 for Link 5

     6:25:00: Balanced after 3 trials
   
     6:30:00: Balancing the network:

              Trial  1: relative flow change = 0.070252
              Trial  2: relative flow change = 0.018770
              Trial  3: relative flow change = 0.000952
                        maximum  flow change = 1.4589 for Link PRV_inlet
                        maximum  head error  = 0.0000 for Link 5

     6:30:00: Balanced after 3 trials
   
     6:35:00: Balancing the network:

              Trial  1: relative flow change = 0.050071
              Trial  2: relative flow change = 0.006475
                        maximum  flow change = 5.2545 for Link PRV_inlet
                        maximum  head error  = 0.0026 for Link p-547

     6:35:00: Balanced after 2 trials
   
     6:40:00: Balancing the network:

              Trial  1: relative flow change = 0.073798
              Trial  2: relative flow change = 0.013024
              Trial  3: relative flow change = 0.000507
                        maximum  flow change = 0.9990 for Link 5
                        maximum  head error  = 0.0000 for Link 5

     6:40:00: Balanced after 3 trials
   
     6:45:00: Balancing the network:

              Trial  1: relative flow change = 0.045289
              Trial  2: relative flow change = 0.004694
                        maximum  flow change = 4.3377 for Link 5
                        maximum  head error  = 0.0004 for Link p-582

     6:45:00: Balanced after 2 trials
   
     6:50:00: Balancing the network:

              Trial  1: relative flow change = 0.036114
              Trial  2: relative flow change = 0.011457
              Trial  3: relative flow change = 0.000702
                        maximum  flow change = 1.4191 for Link PRV_inlet
                        maximum  head error  = 0.0000 for Link 5

     6:50:00: Balanced after 3 trials
   
     6:55:00: Balancing the network:

              Trial  1: relative flow change = 0.044024
              Trial  2: relative flow change = 0.006690
                        maximum  flow change = 5.1116 for Link 5
                        maximum  head error  = 0.0001 for Link 5

     6:55:00: Balanced after 2 trials
   
     7:00:00: Balancing the network:

              Trial  1: relative flow change = 0.046637
              Trial  2: relative flow change = 0.008633
                        maximum  flow change = 4.4734 for Link PRV_inlet
                        maximum  head error  = 0.0002 for Link p-11

     7:00:00: Balanced after 2 trials
   
     7:05:00: Balancing the network:

              Trial  1: relative flow change = 0.039048
              Trial  2: relative flow change = 0.002743
                        maximum  flow change = 1.9574 for Link 5
                        maximum  head error  = 0.0001 for Link p-839

     7:05:00: Balanced after 2 trials
   
     7:10:00: Balancing the network:

              Trial  1: relative flow change = 0.074631
              Trial  2: relative flow change = 0.018089
              Trial  3: relative flow change = 0.000790
                        maximum  flow change = 1.4938 for Link PRV_inlet
                        maximum  head error  = 0.0000 for Link p-196

     7:10:00: Balanced after 3 trials
   
     7:15:00: Balancing the network:

              Trial  1: relative flow change = 0.040422
              Trial  2: relative flow change = 0.004575
                        maximum  flow change = 6.0298 for Link PRV_inlet
                        maximum  head error  = 0.0007 for Link p-729

     7:15:00: Balanced after 2 trials
   
     7:20:00: Balancing the network:

              Trial  1: relative flow change = 0.039422
              Trial  2: relative flow change = 0.006013
                        maximum  flow change = 3.4541 for Link 5
                        maximum  head error  = 0.0001 for Link p-278

     7:20:00: Balanced after 2 trials
   
     7:25:00: Balancing the network:

              Trial  1: relative flow change = 0.040790
              Trial  2: relative flow change = 0.003476
                        maximum  flow change = 3.2951 for Link PRV_inlet
                        maximum  head error  = 0.0007 for Link p-729

     7:25:00: Balanced after 2 trials
   
     7:30:00: Balancing the network:

              Trial  1: relative flow change = 0.072286
              Trial  2: relative flow change = 0.010562
              Trial  3: relative flow change = 0.000207
                        maximum  flow change = 0.4168 for Link 5
                        maximum  head error  = 0.0000 for Link 5

     7:30:00: Balanced after 3 trials
   
     7:35:00: Balancing the network:

              Trial  1: relative flow change = 0.040161
              Trial  2: relative flow change = 0.008519
                        maximum  flow change = 9.5518 for Link 5
                        maximum  head error  = 0.0005 for Link 5

     7:35:00: Balanced after 2 trials
   
     7:40:00: Balancing the network:

              Trial  1: relative flow change = 0.035103
              Trial  2: relative flow change = 0.008387
                        maximum  flow change = 5.2682 for Link PRV_inlet
                        maximum  head error  = 0.0002 for Link p-11

     7:40:00: Balanced after 2 trials
   
     7:45:00: Balancing the network:

              Trial  1: relative flow change = 0.047189
              Trial  2: relative flow change = 0.009118
                        maximum  flow change = 7.8071 for Link PRV_inlet
                        maximum  head error  = 0.0003 for Link 5

     7:45:00: Balanced after 2 trials
   
     7:50:00: Balancing the network:

              Trial  1: relative flow change = 0.029563
              Trial  2: relative flow change = 0.004632
                        maximum  flow change = 1.7317 for Link 5
                        maximum  head error  = 0.0001 for Link p-11

     7:50:00: Balanced after 2 trials
   
     7:55:00: Balancing the network:

              Trial  1: relative flow change = 0.043683
              Trial  2: relative flow change = 0.006797
                        maximum  flow change = 4.7274 for Link 5
                        maximum  head error  = 0.0002 for Link p-124

     7:55:00: Balanced after 2 trials
   
     8:00:00: Balancing the network:

              Trial  1: relative flow change = 0.040994
              Trial  2: relative flow change = 0.007033
                        maximum  flow change = 1.5765 for Link PRV_inlet
                        maximum  head error  = 0.0003 for Link p-461

     8:00:00: Balanced after 2 trials
   
     8:05:00: Balancing the network:

              Trial  1: relative flow change = 0.042873
              Trial  2: relative flow change = 0.006216
                        maximum  flow change = 8.7311 for Link 5
                        maximum  head error  = 0.0004 for Link 5

     8:05:00: Balanced after 2 trials
   
     8:10:00: Balancing the network:

              Trial  1: relative flow change = 0.037966
              Trial  2: relative flow change = 0.007922
                        maximum  flow change = 5.8700 for Link PRV_inlet
                        maximum  head error  = 0.0002 for Link 5

     8:10:00: Balanced after 2 trials
   
     8:15:00: Balancing the network:

              Trial  1: relative flow change = 0.046715
              Trial  2: relative flow change = 0.011126
              Trial  3: relative flow change = 0.000484
                        maximum  flow change = 1.0450 for Link PRV_inlet
                        maximum  head error  = 0.0000 for Link 5

     8:15:00: Balanced after 3 trials
   
     8:20:00: Balancing the network:

              Trial  1: relative flow change = 0.049860
              Trial  2: relative flow change = 0.010670
              Trial  3: relative flow change = 0.000887
                        maximum  flow change = 1.4772 for Link 5
                        maximum  head error  = 0.0000 for Link p-582

     8:20:00: Balanced after 3 trials
   
     8:25:00: Balancing the network:

              Trial  1: relative flow change = 0.039721
              Trial  2: relative flow change = 0.002223
                        maximum  flow change = 0.5318 for Link PRV_inlet
                        maximum  head error  = 0.0001 for Link p-973

     8:25:00: Balanced after 2 trials
   
     8:30:00: Balancing the network:

              Trial  1: relative flow change = 0.045450
              Trial  2: relative flow change = 0.012922
              Trial  3: relative flow change = 0.000769
                        maximum  flow change = 1.5384 for Link 5
                        maximum  head error  = 0.0000 for Link 5

     8:30:00: Balanced after 3 trials
   
     8:35:00: Balancing the network:

              Trial  1: relative flow change = 0.037520
              Trial  2: relative flow change = 0.007557
                        maximum  flow change = 2.4334 for Link PRV_inlet
                        maximum  head error  = 0.0002 for Link p-733

     8:35:00: Balanced after 2 trials
   
     8:40:00: Balancing the network:

              Trial  1: relative flow change = 0.064027
              Trial  2: relative flow change = 0.011687
              Trial  3: relative flow change = 0.000419
                        maximum  flow change = 0.8112 for Link PRV_inlet
                        maximum  head error  = 0.0000 for Link 5

     8:40:00: Balanced after 3 trials
   
     8:45:00: Balancing the network:

              Trial  1: relative flow change = 0.040240
              Trial  2: relative flow change = 0.002568
                        maximum  flow change = 0.3360 for Link PRV_dist
                        maximum  head error  = 0.0000 for Link p-243

     8:45:00: Balanced after 2 trials
   
     8:50:00: Balancing the network:

              Trial  1: relative flow change = 0.034640
              Trial  2: relative flow change = 0.005862
                        maximum  flow change = 3.1126 for Link 5
                        maximum  head error  = 0.0001 for Link p-461

     8:50:00: Balanced after 2 trials
   
     8:55:00: Balancing the network:

              Trial  1: relative flow change = 0.066022
              Trial  2: relative flow change = 0.016895
              Trial  3: relative flow change = 0.000965
                        maximum  flow change = 1.7175 for Link PRV_inlet
                        maximum  head error  = 0.0000 for Link 5

     8:55:00: Balanced after 3 trials
   
     9:00:00: Balancing the network:

              Trial  1: relative flow change = 0.071899
              Trial  2: relative flow change = 0.012483
              Trial  3: relative flow change = 0.000526
                        maximum  flow change = 1.0778 for Link 5
                        maximum  head error  = 0.0000 for Link 5

     9:00:00: Balanced after 3 trials
   
     9:05:00: Balancing the network:

              Trial  1: relative flow change = 0.057997
              Trial  2: relative flow change = 0.015337
              Trial  3: relative flow change = 0.000740
                        maximum  flow change = 1.3830 for Link 5
                        maximum  head error  = 0.0000 for Link p-196

     9:05:00: Balanced after 3 trials
   
     9:10:00: Balancing the network:

              Trial  1: relative flow change = 0.032784
              Trial  2: relative flow change = 0.005413
                        maximum  flow change = 2.8475 for Link 5
                        maximum  head error  = 0.0002 for Link p-243

     9:10:00: Balanced after 2 trials
   
     9:15:00: Balancing the network:

              Trial  1: relative flow change = 0.030728
              Trial  2: relative flow change = 0.004443
                        maximum  flow change = 0.6443 for Link p-1144
                        maximum  head error  = 0.0002 for Link p-901

     9:15:00: Balanced after 2 trials
   
     9:20:00: Balancing the network:

              Trial  1: relative flow change = 0.084862
              Trial  2: relative flow change = 0.013247
              Trial  3: relative flow change = 0.000406
                        maximum  flow change = 0.5025 for Link 5
                        maximum  head error  = 0.0000 for Link p-582

     9:20:00: Balanced after 3 trials
   
     9:25:00: Balancing the network:

              Trial  1: relative flow change = 0.096352
              Trial  2: relative flow change = 0.015782
              Trial  3: relative flow change = 0.000163
                        maximum  flow change = 0.2950 for Link 5
                        maximum  head error  = 0.0000 for Link p-115

     9:25:00: Balanced after 3 trials
   
     9:30:00: Balancing the network:

              Trial  1: relative flow change = 0.034520
              Trial  2: relative flow change = 0.003302
                        maximum  flow change = 2.2030 for Link PRV_inlet
                        maximum  head error  = 0.0005 for Link p-582

     9:30:00: Balanced after 2 trials
   
     9:35:00: Balancing the network:

              Trial  1: relative flow change = 0.101704
              Trial  2: relative flow change = 0.014275
              Trial  3: relative flow change = 0.000132
                        maximum  flow change = 0.2341 for Link 5
                        maximum  head error  = 0.0000 for Link 5

     9:35:00: Balanced after 3 trials
   
     9:40:00: Balancing the network:

              Trial  1: relative flow change = 0.052538
              Trial  2: relative flow change = 0.004836
                        maximum  flow change = 7.6585 for Link PRV_inlet
                        maximum  head error  = 0.0003 for Link 5

     9:40:00: Balanced after 2 trials
   
     9:45:00: Balancing the network:

              Trial  1: relative flow change = 0.042528
              Trial  2: relative flow change = 0.004671
                        maximum  flow change = 3.3483 for Link 5
                        maximum  head error  = 0.0004 for Link p-582

     9:45:00: Balanced after 2 trials
   
     9:50:00: Balancing the network:

              Trial  1: relative flow change = 0.033692
              Trial  2: relative flow change = 0.004711
                        maximum  flow change = 1.8291 for Link PRV_inlet
                        maximum  head error  = 0.0001 for Link p-973

     9:50:00: Balanced after 2 trials
   
     9:55:00: Balancing the network:

              Trial  1: relative flow change = 0.068737
              Trial  2: relative flow change = 0.018646
              Trial  3: relative flow change = 0.000901
                        maximum  flow change = 1.6320 for Link PRV_inlet
                        maximum  head error  = 0.0000 for Link 5

     9:55:00: Balanced after 3 trials
   
    10:00:00: Balancing the network:

              Trial  1: relative flow change = 0.045967
              Trial  2: relative flow change = 0.011801
              Trial  3: relative flow change = 0.000541
                        maximum  flow change = 1.0871 for Link 5
                        maximum  head error  = 0.0000 for Link 5

    10:00:00: Balanced after 3 trials
   
    10:05:00: Balancing the network:

              Trial  1: relative flow change = 0.074917
              Trial  2: relative flow change = 0.010510
              Trial  3: relative flow change = 0.000150
                        maximum  flow change = 0.2886 for Link PRV_inlet
                        maximum  head error  = 0.0000 for Link 5

    10:05:00: Balanced after 3 trials
   
    10:10:00: Balancing the network:

              Trial  1: relative flow change = 0.054125
              Trial  2: relative flow change = 0.007470
                        maximum  flow change = 11.2613 for Link PRV_inlet
                        maximum  head error  = 0.0007 for Link 5

    10:10:00: Balanced after 2 trials
   
    10:15:00: Balancing the network:

              Trial  1: relative flow change = 0.034058
              Trial  2: relative flow change = 0.009967
                        maximum  flow change = 4.0242 for Link 5
                        maximum  head error  = 0.0005 for Link p-831

    10:15:00: Balanced after 2 trials
   
    10:20:00: Balancing the network:

              Trial  1: relative flow change = 0.047294
              Trial  2: relative flow change = 0.014684
              Trial  3: relative flow change = 0.000808
                        maximum  flow change = 1.5231 for Link 5
                        maximum  head error  = 0.0000 for Link 5

    10:20:00: Balanced after 3 trials
   
    10:25:00: Balancing the network:

              Trial  1: relative flow change = 0.069092
              Trial  2: relative flow change = 0.022267
              Trial  3: relative flow change = 0.001105
                        maximum  flow change = 1.7288 for Link PRV_inlet
                        maximum  head error  = 0.0000 for Link 5

    10:25:00: Balanced after 3 trials
   
    10:30:00: Balancing the network:

              Trial  1: relative flow change = 0.061994
              Trial  2: relative flow change = 0.009737
                        maximum  flow change = 16.0240 for Link PRV_inlet
                        maximum  head error  = 0.0015 for Link 5

    10:30:00: Balanced after 2 trials
   
    10:35:00: Balancing the network:

              Trial  1: relative flow change = 0.035907
              Trial  2: relative flow change = 0.004802
                        maximum  flow change = 1.0751 for Link PRV_inlet
                        maximum  head error  = 0.0003 for Link p-582

    10:35:00: Balanced after 2 trials
   
    10:40:00: Balancing the network:

              Trial  1: relative flow change = 0.040068
              Trial  2: relative flow change = 0.004230
                        maximum  flow change = 6.0254 for Link 5
                        maximum  head error  = 0.0002 for Link 5

    10:40:00: Balanced after 2 trials
   
    10:45:00: Balancing the network:

              Trial  1: relative flow change = 0.076680
              Trial  2: relative flow change = 0.010541
              Trial  3: relative flow change = 0.000281
                        maximum  flow change = 0.4804 for Link 5
                        maximum  head error  = 0.0000 for Link 5

    10:45:00: Balanced after 3 trials
   
    10:50:00: Balancing the network:

              Trial  1: relative flow change = 0.053150
              Trial  2: relative flow change = 0.009980
                        maximum  flow change = 1.4544 for Link PRV_inlet
                        maximum  head error  = 0.0005 for Link p-11

    10:50:00: Balanced after 2 trials
   
    10:55:00: Balancing the network:

              Trial  1: relative flow change = 0.048077
              Trial  2: relative flow change = 0.014687
              Trial  3: relative flow change = 0.000960
                        maximum  flow change = 1.6503 for Link 5
                        maximum  head error  = 0.0000 for Link 5

    10:55:00: Balanced after 3 trials
   
    11:00:00: Balancing the network:

              Trial  1: relative flow change = 0.052117
              Trial  2: relative flow change = 0.005094
                        maximum  flow change = 3.4913 for Link 5
                        maximum  head error  = 0.0008 for Link p-582

    11:00:00: Balanced after 2 trials
   
    11:05:00: Balancing the network:

              Trial  1: relative flow change = 0.036222
              Trial  2: relative flow change = 0.004726
                        maximum  flow change = 3.5863 for Link 5
                        maximum  head error  = 0.0001 for Link p-461

    11:05:00: Balanced after 2 trials
   
    11:10:00: Balancing the network:

              Trial  1: relative flow change = 0.038666
              Trial  2: relative flow change = 0.005580
                        maximum  flow change = 2.1389 for Link PRV_inlet
                        maximum  head error  = 0.0001 for Link p-11

    11:10:00: Balanced after 2 trials
   
    11:15:00: Balancing the network:

              Trial  1: relative flow change = 0.040066
              Trial  2: relative flow change = 0.010562
              Trial  3: relative flow change = 0.000847
                        maximum  flow change = 1.3375 for Link 5
                        maximum  head error  = 0.0000 for Link 5

    11:15:00: Balanced after 3 trials
   
    11:20:00: Balancing the network:

              Trial  1: relative flow change = 0.045540
              Trial  2: relative flow change = 0.007770
                        maximum  flow change = 6.7361 for Link 5
                        maximum  head error  = 0.0003 for Link p-243

    11:20:00: Balanced after 2 trials
   
    11:25:00: Balancing the network:

              Trial  1: relative flow change = 0.035781
              Trial  2: relative flow change = 0.003878
                        maximum  flow change = 3.4031 for Link 5
                        maximum  head error  = 0.0001 for Link 5

    11:25:00: Balanced after 2 trials
   
    11:30:00: Balancing the network:

              Trial  1: relative flow change = 0.045404
              Trial  2: relative flow change = 0.008345
                        maximum  flow change = 4.5779 for Link PRV_inlet
                        maximum  head error  = 0.0001 for Link 5

    11:30:00: Balanced after 2 trials
   
    11:35:00: Balancing the network:

              Trial  1: relative flow change = 0.047580
              Trial  2: relative flow change = 0.006775
                        maximum  flow change = 0.7409 for Link PRV_dist
                        maximum  head error  = 0.0007 for Link p-901

    11:35:00: Balanced after 2 trials
   
    11:40:00: Balancing the network:

              Trial  1: relative flow change = 0.048019
              Trial  2: relative flow change = 0.016555
              Trial  3: relative flow change = 0.001333
                        maximum  flow change = 1.9412 for Link PRV_inlet
                        maximum  head error  = 0.0000 for Link 5

    11:40:00: Balanced after 3 trials
   
    11:45:00: Balancing the network:

              Trial  1: relative flow change = 0.039346
              Trial  2: relative flow change = 0.003880
                        maximum  flow change = 2.2345 for Link 5
                        maximum  head error  = 0.0000 for Link p-196

    11:45:00: Balanced after 2 trials
   
    11:50:00: Balancing the network:

              Trial  1: relative flow change = 0.036131
              Trial  2: relative flow change = 0.016167
              Trial  3: relative flow change = 0.001198
                        maximum  flow change = 1.9932 for Link 5
                        maximum  head error  = 0.0000 for Link 5

    11:50:00: Balanced after 3 trials
   
    11:55:00: Balancing the network:

              Trial  1: relative flow change = 0.054921
              Trial  2: relative flow change = 0.007427
                        maximum  flow change = 10.3825 for Link 5
                        maximum  head error  = 0.0006 for Link 5

    11:55:00: Balanced after 2 trials
   
    12:00:00: Balancing the network:

              Trial  1: relative flow change = 0.051217
              Trial  2: relative flow change = 0.016691
              Trial  3: relative flow change = 0.001061
                        maximum  flow change = 1.7137 for Link 5
                        maximum  head error  = 0.0000 for Link 5

    12:00:00: Balanced after 3 trials
   
    12:05:00: Balancing the network:

              Trial  1: relative flow change = 0.064607
              Trial  2: relative flow change = 0.023867
              Trial  3: relative flow change = 0.001601
                        maximum  flow change = 2.5327 for Link PRV_inlet
                        maximum  head error  = 0.0000 for Link p-196

    12:05:00: Balanced after 3 trials
   
    12:10:00: Balancing the network:

              Trial  1: relative flow change = 0.050768
              Trial  2: relative flow change = 0.004631
                        maximum  flow change = 2.3604 for Link 5
                        maximum  head error  = 0.0002 for Link p-839

    12:10:00: Balanced after 2 trials
   
    12:15:00: Balancing the network:

              Trial  1: relative flow change = 0.053473
              Trial  2: relative flow change = 0.019586
              Trial  3: relative flow change = 0.001274
                        maximum  flow change = 2.0212 for Link 5
                        maximum  head error  = 0.0000 for Link 5

    12:15:00: Balanced after 3 trials
   
    12:20:00: Balancing the network:

              Trial  1: relative flow change = 0.056598
              Trial  2: relative flow change = 0.017340
              Trial  3: relative flow change = 0.000939
                        maximum  flow change = 1.5999 for Link 5
                        maximum  head error  = 0.0000 for Link 5

    12:20:00: Balanced after 3 trials
   
    12:25:00: Balancing the network:

              Trial  1: relative flow change = 0.046155
              Trial  2: relative flow change = 0.008817
                        maximum  flow change = 5.6434 for Link PRV_inlet
                        maximum  head error  = 0.0008 for Link p-789

    12:25:00: Balanced after 2 trials
   
    12:30:00: Balancing the network:

              Trial  1: relative flow change = 0.038613
              Trial  2: relative flow change = 0.004989
                        maximum  flow change = 5.0781 for Link 5
                        maximum  head error  = 0.0001 for Link 5

    12:30:00: Balanced after 2 trials
   
    12:35:00: Balancing the network:

              Trial  1: relative flow change = 0.054273
              Trial  2: relative flow change = 0.003709
                        maximum  flow change = 0.6377 for Link PRV_inlet
                        maximum  head error  = 0.0001 for Link p-11

    12:35:00: Balanced after 2 trials
   
    12:40:00: Balancing the network:

              Trial  1: relative flow change = 0.058220
              Trial  2: relative flow change = 0.012740
              Trial  3: relative flow change = 0.000542
                        maximum  flow change = 0.7770 for Link 5
                        maximum  head error  = 0.0000 for Link 5

    12:40:00: Balanced after 3 trials
   
    12:45:00: Balancing the network:

              Trial  1: relative flow change = 0.054720
              Trial  2: relative flow change = 0.011264
              Trial  3: relative flow change = 0.000326
                        maximum  flow change = 0.5232 for Link PRV_inlet
                        maximum  head error  = 0.0000 for Link 5

    12:45:00: Balanced after 3 trials
   
    12:50:00: Balancing the network:

              Trial  1: relative flow change = 0.045966
              Trial  2: relative flow change = 0.007399
                        maximum  flow change = 2.5775 for Link 5
                        maximum  head error  = 0.0005 for Link p-729

    12:50:00: Balanced after 2 trials
   
    12:55:00: Balancing the network:

              Trial  1: relative flow change = 0.067014
              Trial  2: relative flow change = 0.007528
                        maximum  flow change = 9.5017 for Link 5
                        maximum  head error  = 0.0008 for Link p-196

    12:55:00: Balanced after 2 trials
   
    13:00:00: Balancing the network:

              Trial  1: relative flow change = 0.046199
              Trial  2: relative flow change = 0.009441
                        maximum  flow change = 3.1156 for Link PRV_inlet
                        maximum  head error  = 0.0002 for Link p-11

    13:00:00: Balanced after 2 trials
   
    13:05:00: Balancing the network:

              Trial  1: relative flow change = 0.053541
              Trial  2: relative flow change = 0.011319
              Trial  3: relative flow change = 0.000422
                        maximum  flow change = 0.6717 for Link PRV_inlet
                        maximum  head error  = 0.0000 for Link 5

    13:05:00: Balanced after 3 trials
   
    13:10:00: Balancing the network:

              Trial  1: relative flow change = 0.072892
              Trial  2: relative flow change = 0.017900
              Trial  3: relative flow change = 0.000897
                        maximum  flow change = 1.2820 for Link 5
                        maximum  head error  = 0.0000 for Link p-196

    13:10:00: Balanced after 3 trials
   
    13:15:00: Balancing the network:

              Trial  1: relative flow change = 0.046974
              Trial  2: relative flow change = 0.015925
              Trial  3: relative flow change = 0.000877
                        maximum  flow change = 1.2817 for Link PRV_inlet
                        maximum  head error  = 0.0000 for Link 5

    13:15:00: Balanced after 3 trials
   
    13:20:00: Balancing the network:

              Trial  1: relative flow change = 0.079696
              Trial  2: relative flow change = 0.010973
              Trial  3: relative flow change = 0.000241
                        maximum  flow change = 0.2652 for Link 5
                        maximum  head error  = 0.0000 for Link p-115

    13:20:00: Balanced after 3 trials
   
    13:25:00: Balancing the network:

              Trial  1: relative flow change = 0.047250
              Trial  2: relative flow change = 0.010977
              Trial  3: relative flow change = 0.000581
                        maximum  flow change = 0.8083 for Link PRV_inlet
                        maximum  head error  = 0.0000 for Link p-831

    13:25:00: Balanced after 3 trials
   
    13:30:00: Balancing the network:

              Trial  1: relative flow change = 0.046141
              Trial  2: relative flow change = 0.005216
                        maximum  flow change = 5.4091 for Link 5
                        maximum  head error  = 0.0003 for Link p-831

    13:30:00: Balanced after 2 trials
   
    13:35:00: Balancing the network:

              Trial  1: relative flow change = 0.035750
              Trial  2: relative flow change = 0.002835
                        maximum  flow change = 0.8192 for Link 5
                        maximum  head error  = 0.0002 for Link p-901

    13:35:00: Balanced after 2 trials
   
    13:40:00: Balancing the network:

              Trial  1: relative flow change = 0.041084
              Trial  2: relative flow change = 0.005067
                        maximum  flow change = 1.0472 for Link 5
                        maximum  head error  = 0.0002 for Link p-582

    13:40:00: Balanced after 2 trials
   
    13:45:00: Balancing the network:

              Trial  1: relative flow change = 0.055909
              Trial  2: relative flow change = 0.014318
              Trial  3: relative flow change = 0.001269
                        maximum  flow change = 1.4945 for Link PRV_inlet
                        maximum  head error  = 0.0001 for Link p-582

    13:45:00: Balanced after 3 trials
   
    13:50:00: Balancing the network:

              Trial  1: relative flow change = 0.054526
              Trial  2: relative flow change = 0.005761
                        maximum  flow change = 7.3423 for Link 5
                        maximum  head error  = 0.0003 for Link 5

    13:50:00: Balanced after 2 trials
   
    13:55:00: Balancing the network:

              Trial  1: relative flow change = 0.060569
              Trial  2: relative flow change = 0.006238
                        maximum  flow change = 6.1682 for Link 5
                        maximum  head error  = 0.0002 for Link 5

    13:55:00: Balanced after 2 trials
   
    14:00:00: Balancing the network:

              Trial  1: relative flow change = 0.042656
              Trial  2: relative flow change = 0.017386
              Trial  3: relative flow change = 0.001563
                        maximum  flow change = 2.0919 for Link PRV_inlet
                        maximum  head error  = 0.0000 for Link 5

    14:00:00: Balanced after 3 trials
   
    14:05:00: Balancing the network:

              Trial  1: relative flow change = 0.045762
              Trial  2: relative flow change = 0.015182
              Trial  3: relative flow change = 0.001219
                        maximum  flow change = 1.5795 for Link 5
                        maximum  head error  = 0.0000 for Link p-196

    14:05:00: Balanced after 3 trials
   
    14:10:00: Balancing the network:

              Trial  1: relative flow change = 0.064387
              Trial  2: relative flow change = 0.014667
              Trial  3: relative flow change = 0.000719
                        maximum  flow change = 1.1551 for Link 5
                        maximum  head error  = 0.0000 for Link 5

    14:10:00: Balanced after 3 trials
   
    14:15:00: Balancing the network:

              Trial  1: relative flow change = 0.059832
              Trial  2: relative flow change = 0.013399
              Trial  3: relative flow change = 0.000902
                        maximum  flow change = 0.9926 for Link PRV_inlet
                        maximum  head error  = 0.0000 for Link p-582

    14:15:00: Balanced after 3 trials
   
    14:20:00: Balancing the network:

              Trial  1: relative flow change = 0.047400
              Trial  2: relative flow change = 0.003220
                        maximum  flow change = 1.1298 for Link 5
                        maximum  head error  = 0.0002 for Link p-248

    14:20:00: Balanced after 2 trials
   
    14:25:00: Balancing the network:

              Trial  1: relative flow change = 0.037103
              Trial  2: relative flow change = 0.003742
                        maximum  flow change = 3.7851 for Link PRV_inlet
                        maximum  head error  = 0.0001 for Link p-124

    14:25:00: Balanced after 2 trials
   
    14:30:00: Balancing the network:

              Trial  1: relative flow change = 0.035515
              Trial  2: relative flow change = 0.002894
                        maximum  flow change = 1.8771 for Link 5
                        maximum  head error  = 0.0003 for Link p-582

    14:30:00: Balanced after 2 trials
   
    14:35:00: Balancing the network:

              Trial  1: relative flow change = 0.056121
              Trial  2: relative flow change = 0.006594
                        maximum  flow change = 8.2842 for Link 5
                        maximum  head error  = 0.0004 for Link 5

    14:35:00: Balanced after 2 trials
   
    14:40:00: Balancing the network:

              Trial  1: relative flow change = 0.073853
              Trial  2: relative flow change = 0.007869
                        maximum  flow change = 6.5907 for Link PRV_inlet
                        maximum  head error  = 0.0003 for Link 5

    14:40:00: Balanced after 2 trials
   
    14:45:00: Balancing the network:

              Trial  1: relative flow change = 0.067606
              Trial  2: relative flow change = 0.009934
                        maximum  flow change = 5.9117 for Link PRV_inlet
                        maximum  head error  = 0.0002 for Link p-831

    14:45:00: Balanced after 2 trials
   
    14:50:00: Balancing the network:

              Trial  1: relative flow change = 0.048634
              Trial  2: relative flow change = 0.008234
                        maximum  flow change = 6.5907 for Link 5
                        maximum  head error  = 0.0003 for Link 5

    14:50:00: Balanced after 2 trials
   
    14:55:00: Balancing the network:

              Trial  1: relative flow change = 0.061127
              Trial  2: relative flow change = 0.003894
                        maximum  flow change = 0.7211 for Link PRV_inlet
                        maximum  head error  = 0.0001 for Link p-831

    14:55:00: Balanced after 2 trials
   
    15:00:00: Balancing the network:

              Trial  1: relative flow change = 0.044357
              Trial  2: relative flow change = 0.010009
              Trial  3: relative flow change = 0.000529
                        maximum  flow change = 0.8540 for Link 5
                        maximum  head error  = 0.0000 for Link 5

    15:00:00: Balanced after 3 trials
   
    15:05:00: Balancing the network:

              Trial  1: relative flow change = 0.053165
              Trial  2: relative flow change = 0.007356
                        maximum  flow change = 10.2965 for Link 5
                        maximum  head error  = 0.0006 for Link 5

    15:05:00: Balanced after 2 trials
   
    15:10:00: Balancing the network:

              Trial  1: relative flow change = 0.051970
              Trial  2: relative flow change = 0.009681
                        maximum  flow change = 7.9647 for Link PRV_inlet
                        maximum  head error  = 0.0004 for Link 5

    15:10:00: Balanced after 2 trials
   
    15:15:00: Balancing the network:

              Trial  1: relative flow change = 0.053300
              Trial  2: relative flow change = 0.014018
              Trial  3: relative flow change = 0.000992
                        maximum  flow change = 1.4146 for Link 5
                        maximum  head error  = 0.0000 for Link 5

    15:15:00: Balanced after 3 trials
   
    15:20:00: Balancing the network:

              Trial  1: relative flow change = 0.047605
              Trial  2: relative flow change = 0.006091
                        maximum  flow change = 5.4337 for Link PRV_inlet
                        maximum  head error  = 0.0002 for Link 5

    15:20:00: Balanced after 2 trials
   
    15:25:00: Balancing the network:

              Trial  1: relative flow change = 0.071713
              Trial  2: relative flow change = 0.016796
              Trial  3: relative flow change = 0.000807
                        maximum  flow change = 1.3107 for Link PRV_inlet
                        maximum  head error  = 0.0000 for Link 5

    15:25:00: Balanced after 3 trials
   
    15:30:00: Balancing the network:

              Trial  1: relative flow change = 0.047077
              Trial  2: relative flow change = 0.007572
                        maximum  flow change = 7.5265 for Link PRV_inlet
                        maximum  head error  = 0.0003 for Link 5

    15:30:00: Balanced after 2 trials
   
    15:35:00: Balancing the network:

              Trial  1: relative flow change = 0.038610
              Trial  2: relative flow change = 0.010564
              Trial  3: relative flow change = 0.000851
                        maximum  flow change = 1.2499 for Link 5
                        maximum  head error  = 0.0000 for Link 5

    15:35:00: Balanced after 3 trials
   
    15:40:00: Balancing the network:

              Trial  1: relative flow change = 0.045181
              Trial  2: relative flow change = 0.011649
              Trial  3: relative flow change = 0.000966
                        maximum  flow change = 1.3394 for Link 5
                        maximum  head error  = 0.0000 for Link 5

    15:40:00: Balanced after 3 trials
   
    15:45:00: Balancing the network:

              Trial  1: relative flow change = 0.040788
              Trial  2: relative flow change = 0.015776
              Trial  3: relative flow change = 0.001170
                        maximum  flow change = 1.7703 for Link 5
                        maximum  head error  = 0.0000 for Link 5

    15:45:00: Balanced after 3 trials
   
    15:50:00: Balancing the network:

              Trial  1: relative flow change = 0.041169
              Trial  2: relative flow change = 0.010290
              Trial  3: relative flow change = 0.000618
                        maximum  flow change = 1.0196 for Link 5
                        maximum  head error  = 0.0000 for Link 5

    15:50:00: Balanced after 3 trials
   
    15:55:00: Balancing the network:

              Trial  1: relative flow change = 0.037174
              Trial  2: relative flow change = 0.011118
              Trial  3: relative flow change = 0.000769
                        maximum  flow change = 1.2333 for Link 5
                        maximum  head error  = 0.0000 for Link 5

    15:55:00: Balanced after 3 trials
   
    16:00:00: Balancing the network:

              Trial  1: relative flow change = 0.069569
              Trial  2: relative flow change = 0.012451
              Trial  3: relative flow change = 0.000367
                        maximum  flow change = 0.6262 for Link PRV_inlet
                        maximum  head error  = 0.0000 for Link 5

    16:00:00: Balanced after 3 trials
   
    16:05:00: Balancing the network:

              Trial  1: relative flow change = 0.033565
              Trial  2: relative flow change = 0.005958
                        maximum  flow change = 0.8920 for Link 5
                        maximum  head error  = 0.0001 for Link p-11

    16:05:00: Balanced after 2 trials
   
    16:10:00: Balancing the network:

              Trial  1: relative flow change = 0.064369
              Trial  2: relative flow change = 0.009491
                        maximum  flow change = 9.7279 for Link PRV_inlet
                        maximum  head error  = 0.0005 for Link 5

    16:10:00: Balanced after 2 trials
   
    16:15:00: Balancing the network:

              Trial  1: relative flow change = 0.051520
              Trial  2: relative flow change = 0.014687
              Trial  3: relative flow change = 0.001027
                        maximum  flow change = 1.6859 for Link 5
                        maximum  head error  = 0.0000 for Link 5

    16:15:00: Balanced after 3 trials
   
    16:20:00: Balancing the network:

              Trial  1: relative flow change = 0.084947
              Trial  2: relative flow change = 0.010937
              Trial  3: relative flow change = 0.000155
                        maximum  flow change = 0.0759 for Link PRV_inlet
                        maximum  head error  = 0.0000 for Link p-582

    16:20:00: Balanced after 3 trials
   
    16:25:00: Balancing the network:

              Trial  1: relative flow change = 0.066596
              Trial  2: relative flow change = 0.009422
                        maximum  flow change = 11.2573 for Link 5
                        maximum  head error  = 0.0007 for Link 5

    16:25:00: Balanced after 2 trials
   
    16:30:00: Balancing the network:

              Trial  1: relative flow change = 0.057815
              Trial  2: relative flow change = 0.011162
              Trial  3: relative flow change = 0.000739
                        maximum  flow change = 0.8058 for Link PRV_inlet
                        maximum  head error  = 0.0000 for Link p-547

    16:30:00: Balanced after 3 trials
   
    16:35:00: Balancing the network:

              Trial  1: relative flow change = 0.048364
              Trial  2: relative flow change = 0.006796
                        maximum  flow change = 8.2299 for Link 5
                        maximum  head error  = 0.0007 for Link p-582

    16:35:00: Balanced after 2 trials
   
    16:40:00: Balancing the network:

              Trial  1: relative flow change = 0.042621
              Trial  2: relative flow change = 0.012115
              Trial  3: relative flow change = 0.000788
                        maximum  flow change = 1.3533 for Link PRV_inlet
                        maximum  head error  = 0.0000 for Link 5

    16:40:00: Balanced after 3 trials
   
    16:45:00: Balancing the network:

              Trial  1: relative flow change = 0.035018
              Trial  2: relative flow change = 0.008005
                        maximum  flow change = 1.7978 for Link 5
                        maximum  head error  = 0.0005 for Link p-901

    16:45:00: Balanced after 2 trials
   
    16:50:00: Balancing the network:

              Trial  1: relative flow change = 0.036386
              Trial  2: relative flow change = 0.004030
                        maximum  flow change = 4.2795 for Link 5
                        maximum  head error  = 0.0002 for Link p-115

    16:50:00: Balanced after 2 trials
   
    16:55:00: Balancing the network:

              Trial  1: relative flow change = 0.050661
              Trial  2: relative flow change = 0.008826
                        maximum  flow change = 2.5116 for Link PRV_inlet
                        maximum  head error  = 0.0003 for Link p-11

    16:55:00: Balanced after 2 trials
   
    17:00:00: Balancing the network:

              Trial  1: relative flow change = 0.049563
              Trial  2: relative flow change = 0.007206
                        maximum  flow change = 6.2337 for Link PRV_inlet
                        maximum  head error  = 0.0003 for Link p-582

    17:00:00: Balanced after 2 trials
   
    17:05:00: Balancing the network:

              Trial  1: relative flow change = 0.063227
              Trial  2: relative flow change = 0.008082
                        maximum  flow change = 11.8563 for Link 5
                        maximum  head error  = 0.0008 for Link 5

    17:05:00: Balanced after 2 trials
   
    17:10:00: Balancing the network:

              Trial  1: relative flow change = 0.047811
              Trial  2: relative flow change = 0.005337
                        maximum  flow change = 6.5107 for Link 5
                        maximum  head error  = 0.0002 for Link 5

    17:10:00: Balanced after 2 trials
   
    17:15:00: Balancing the network:

              Trial  1: relative flow change = 0.039287
              Trial  2: relative flow change = 0.004963
                        maximum  flow change = 0.6166 for Link p-1144
                        maximum  head error  = 0.0001 for Link p-461

    17:15:00: Balanced after 2 trials
   
    17:20:00: Balancing the network:

              Trial  1: relative flow change = 0.041225
              Trial  2: relative flow change = 0.004812
                        maximum  flow change = 3.4365 for Link 5
                        maximum  head error  = 0.0001 for Link p-115

    17:20:00: Balanced after 2 trials
   
    17:25:00: Balancing the network:

              Trial  1: relative flow change = 0.053357
              Trial  2: relative flow change = 0.018157
              Trial  3: relative flow change = 0.001069
                        maximum  flow change = 1.8816 for Link 5
                        maximum  head error  = 0.0000 for Link 5

    17:25:00: Balanced after 3 trials
   
    17:30:00: Balancing the network:

              Trial  1: relative flow change = 0.086874
              Trial  2: relative flow change = 0.012390
              Trial  3: relative flow change = 0.000233
                        maximum  flow change = 0.4187 for Link 5
                        maximum  head error  = 0.0000 for Link 5

    17:30:00: Balanced after 3 trials
   
    17:35:00: Balancing the network:

              Trial  1: relative flow change = 0.049102
              Trial  2: relative flow change = 0.010221
              Trial  3: relative flow change = 0.000563
                        maximum  flow change = 0.8851 for Link 5
                        maximum  head error  = 0.0000 for Link p-582

    17:35:00: Balanced after 3 trials
   
    17:40:00: Balancing the network:

              Trial  1: relative flow change = 0.051339
              Trial  2: relative flow change = 0.011010
              Trial  3: relative flow change = 0.000980
                        maximum  flow change = 1.0341 for Link PRV_inlet
                        maximum  head error  = 0.0000 for Link p-789

    17:40:00: Balanced after 3 trials
   
    17:45:00: Balancing the network:

              Trial  1: relative flow change = 0.056988
              Trial  2: relative flow change = 0.011893
              Trial  3: relative flow change = 0.000553
                        maximum  flow change = 0.8299 for Link 5
                        maximum  head error  = 0.0000 for Link p-582

    17:45:00: Balanced after 3 trials
   
    17:50:00: Balancing the network:

              Trial  1: relative flow change = 0.031654
              Trial  2: relative flow change = 0.004370
                        maximum  flow change = 1.9406 for Link PRV_inlet
                        maximum  head error  = 0.0002 for Link p-831

    17:50:00: Balanced after 2 trials
   
    17:55:00: Balancing the network:

              Trial  1: relative flow change = 0.034174
              Trial  2: relative flow change = 0.012878
              Trial  3: relative flow change = 0.001141
                        maximum  flow change = 1.8187 for Link 5
                        maximum  head error  = 0.0000 for Link 5

    17:55:00: Balanced after 3 trials
   
    18:00:00: Balancing the network:

              Trial  1: relative flow change = 0.036720
              Trial  2: relative flow change = 0.010200
              Trial  3: relative flow change = 0.000733
                        maximum  flow change = 1.0171 for Link PRV_inlet
                        maximum  head error  = 0.0000 for Link p-196

    18:00:00: Balanced after 3 trials
   
    18:05:00: Balancing the network:

              Trial  1: relative flow change = 0.052536
              Trial  2: relative flow change = 0.007096
                        maximum  flow change = 8.1810 for Link PRV_inlet
                        maximum  head error  = 0.0004 for Link 5

    18:05:00: Balanced after 2 trials
   
    18:10:00: Balancing the network:

              Trial  1: relative flow change = 0.048396
              Trial  2: relative flow change = 0.006380
                        maximum  flow change = 6.0432 for Link 5
                        maximum  head error  = 0.0002 for Link 5

    18:10:00: Balanced after 2 trials
   
    18:15:00: Balancing the network:

              Trial  1: relative flow change = 0.041071
              Trial  2: relative flow change = 0.005646
                        maximum  flow change = 2.9907 for Link 5
                        maximum  head error  = 0.0003 for Link p-729

    18:15:00: Balanced after 2 trials
   
    18:20:00: Balancing the network:

              Trial  1: relative flow change = 0.036906
              Trial  2: relative flow change = 0.013469
              Trial  3: relative flow change = 0.000901
                        maximum  flow change = 1.5550 for Link 5
                        maximum  head error  = 0.0000 for Link 5

    18:20:00: Balanced after 3 trials
   
    18:25:00: Balancing the network:

              Trial  1: relative flow change = 0.041403
              Trial  2: relative flow change = 0.004578
                        maximum  flow change = 1.5418 for Link PRV_inlet
                        maximum  head error  = 0.0001 for Link p-11

    18:25:00: Balanced after 2 trials
   
    18:30:00: Balancing the network:

              Trial  1: relative flow change = 0.036917
              Trial  2: relative flow change = 0.007376
                        maximum  flow change = 2.5742 for Link PRV_inlet
                        maximum  head error  = 0.0003 for Link p-243

    18:30:00: Balanced after 2 trials
   
    18:35:00: Balancing the network:

              Trial  1: relative flow change = 0.038969
              Trial  2: relative flow change = 0.013484
              Trial  3: relative flow change = 0.000945
[...]

   211:25:00: Balanced after 2 trials
   
   211:30:00: Balancing the network:

              Trial  1: relative flow change = 0.083779
              Trial  2: relative flow change = 0.002729
                        maximum  flow change = 0.3392 for Link PRV_dist
                        maximum  head error  = 0.0000 for Link p-11

   211:30:00: Balanced after 2 trials
   
   211:35:00: Balancing the network:

              Trial  1: relative flow change = 0.043356
              Trial  2: relative flow change = 0.004745
                        maximum  flow change = 0.4728 for Link p-196
                        maximum  head error  = 0.0006 for Link p-196

   211:35:00: Balanced after 2 trials
   
   211:40:00: Balancing the network:

              Trial  1: relative flow change = 0.077972
              Trial  2: relative flow change = 0.003266
                        maximum  flow change = 0.2828 for Link PRV_dist
                        maximum  head error  = 0.0001 for Link p-901

   211:40:00: Balanced after 2 trials
   
   211:45:00: Balancing the network:

              Trial  1: relative flow change = 0.042048
              Trial  2: relative flow change = 0.003057
                        maximum  flow change = 0.4131 for Link p-743
                        maximum  head error  = 0.0002 for Link p-789

   211:45:00: Balanced after 2 trials
   
   211:50:00: Balancing the network:

              Trial  1: relative flow change = 0.055420
              Trial  2: relative flow change = 0.003238
                        maximum  flow change = 0.2824 for Link p-729
                        maximum  head error  = 0.0006 for Link p-729

   211:50:00: Balanced after 2 trials
   
   211:55:00: Balancing the network:

              Trial  1: relative flow change = 0.041479
              Trial  2: relative flow change = 0.002482
                        maximum  flow change = 0.5068 for Link p-733
                        maximum  head error  = 0.0007 for Link p-901

   211:55:00: Balanced after 2 trials
   
   212:00:00: Balancing the network:

              Trial  1: relative flow change = 0.045848
              Trial  2: relative flow change = 0.011886
              Trial  3: relative flow change = 0.000311
                        maximum  flow change = 0.0497 for Link p-582
                        maximum  head error  = 0.0000 for Link p-582

   212:00:00: Balanced after 3 trials
   
   212:05:00: Balancing the network:

              Trial  1: relative flow change = 0.059836
              Trial  2: relative flow change = 0.003704
                        maximum  flow change = 0.4636 for Link p-743
                        maximum  head error  = 0.0003 for Link p-789

   212:05:00: Balanced after 2 trials
   
   212:10:00: Balancing the network:

              Trial  1: relative flow change = 0.049580
              Trial  2: relative flow change = 0.002074
                        maximum  flow change = 0.1936 for Link p-733
                        maximum  head error  = 0.0002 for Link p-582

   212:10:00: Balanced after 2 trials
   
   212:15:00: Balancing the network:

              Trial  1: relative flow change = 0.041667
              Trial  2: relative flow change = 0.002095
                        maximum  flow change = 0.1633 for Link p-901
                        maximum  head error  = 0.0001 for Link p-901

   212:15:00: Balanced after 2 trials
   
   212:20:00: Balancing the network:

              Trial  1: relative flow change = 0.055126
              Trial  2: relative flow change = 0.007249
                        maximum  flow change = 0.8392 for Link 5
                        maximum  head error  = 0.0002 for Link p-243

   212:20:00: Balanced after 2 trials
   
   212:25:00: Balancing the network:

              Trial  1: relative flow change = 0.033599
              Trial  2: relative flow change = 0.009130
                        maximum  flow change = 1.0345 for Link PRV_dist
                        maximum  head error  = 0.0003 for Link p-243

   212:25:00: Balanced after 2 trials
   
   212:30:00: Balancing the network:

              Trial  1: relative flow change = 0.037090
              Trial  2: relative flow change = 0.005908
                        maximum  flow change = 0.6270 for Link PRV_dist
                        maximum  head error  = 0.0001 for Link p-243

   212:30:00: Balanced after 2 trials
   
   212:35:00: Balancing the network:

              Trial  1: relative flow change = 0.049443
              Trial  2: relative flow change = 0.004196
                        maximum  flow change = 0.5497 for Link p-789
                        maximum  head error  = 0.0005 for Link p-789

   212:35:00: Balanced after 2 trials
   
   212:40:00: Balancing the network:

              Trial  1: relative flow change = 0.037812
              Trial  2: relative flow change = 0.003307
                        maximum  flow change = 0.2773 for Link p-1144
                        maximum  head error  = 0.0001 for Link p-766

   212:40:00: Balanced after 2 trials
   
   212:45:00: Balancing the network:

              Trial  1: relative flow change = 0.029333
              Trial  2: relative flow change = 0.002243
                        maximum  flow change = 0.2773 for Link p-733
                        maximum  head error  = 0.0002 for Link p-901

   212:45:00: Balanced after 2 trials
   
   212:50:00: Balancing the network:

              Trial  1: relative flow change = 0.042943
              Trial  2: relative flow change = 0.005973
                        maximum  flow change = 0.6522 for Link PRV_inlet
                        maximum  head error  = 0.0001 for Link p-243

   212:50:00: Balanced after 2 trials
   
   212:55:00: Balancing the network:

              Trial  1: relative flow change = 0.035634
              Trial  2: relative flow change = 0.001576
                        maximum  flow change = 0.1566 for Link p-188
                        maximum  head error  = 0.0001 for Link p-196

   212:55:00: Balanced after 2 trials
   
   213:00:00: Balancing the network:

              Trial  1: relative flow change = 0.114271
              Trial  2: relative flow change = 0.005428
                        maximum  flow change = 0.5665 for Link PRV_inlet
                        maximum  head error  = 0.0002 for Link p-729

   213:00:00: Balanced after 2 trials
   
   213:05:00: Balancing the network:

              Trial  1: relative flow change = 0.048783
              Trial  2: relative flow change = 0.006767
                        maximum  flow change = 0.6913 for Link PRV_dist
                        maximum  head error  = 0.0003 for Link p-196

   213:05:00: Balanced after 2 trials
   
   213:10:00: Balancing the network:

              Trial  1: relative flow change = 0.047868
              Trial  2: relative flow change = 0.009019
                        maximum  flow change = 0.8704 for Link PRV_dist
                        maximum  head error  = 0.0003 for Link p-243

   213:10:00: Balanced after 2 trials
   
   213:15:00: Balancing the network:

              Trial  1: relative flow change = 0.052733
              Trial  2: relative flow change = 0.001823
                        maximum  flow change = 0.3020 for Link p-582
                        maximum  head error  = 0.0005 for Link p-582

   213:15:00: Balanced after 2 trials
   
   213:20:00: Balancing the network:

              Trial  1: relative flow change = 0.052233
              Trial  2: relative flow change = 0.002956
                        maximum  flow change = 0.4402 for Link p-733
                        maximum  head error  = 0.0005 for Link p-831

   213:20:00: Balanced after 2 trials
   
   213:25:00: Balancing the network:

              Trial  1: relative flow change = 0.084744
              Trial  2: relative flow change = 0.006635
                        maximum  flow change = 0.6720 for Link 5
                        maximum  head error  = 0.0001 for Link p-831

   213:25:00: Balanced after 2 trials
   
   213:30:00: Balancing the network:

              Trial  1: relative flow change = 0.053523
              Trial  2: relative flow change = 0.008015
                        maximum  flow change = 0.7324 for Link PRV_dist
                        maximum  head error  = 0.0002 for Link p-461

   213:30:00: Balanced after 2 trials
   
   213:35:00: Balancing the network:

              Trial  1: relative flow change = 0.046208
              Trial  2: relative flow change = 0.002404
                        maximum  flow change = 0.1794 for Link p-124
                        maximum  head error  = 0.0002 for Link p-582

   213:35:00: Balanced after 2 trials
   
   213:40:00: Balancing the network:

              Trial  1: relative flow change = 0.056903
              Trial  2: relative flow change = 0.005852
                        maximum  flow change = 0.5074 for Link p-1144
                        maximum  head error  = 0.0003 for Link p-766

   213:40:00: Balanced after 2 trials
   
   213:45:00: Balancing the network:

              Trial  1: relative flow change = 0.051990
              Trial  2: relative flow change = 0.002798
                        maximum  flow change = 0.2245 for Link p-680
                        maximum  head error  = 0.0003 for Link p-831

   213:45:00: Balanced after 2 trials
   
   213:50:00: Balancing the network:

              Trial  1: relative flow change = 0.039703
              Trial  2: relative flow change = 0.005861
                        maximum  flow change = 0.5750 for Link p-1144
                        maximum  head error  = 0.0001 for Link p-11

   213:50:00: Balanced after 2 trials
   
   213:55:00: Balancing the network:

              Trial  1: relative flow change = 0.052606
              Trial  2: relative flow change = 0.009848
                        maximum  flow change = 0.9456 for Link PRV_dist
                        maximum  head error  = 0.0010 for Link p-831

   213:55:00: Balanced after 2 trials
   
   214:00:00: Balancing the network:

              Trial  1: relative flow change = 0.058319
              Trial  2: relative flow change = 0.006028
                        maximum  flow change = 0.4718 for Link p-1144
                        maximum  head error  = 0.0002 for Link p-582

   214:00:00: Balanced after 2 trials
   
   214:05:00: Balancing the network:

              Trial  1: relative flow change = 0.064444
              Trial  2: relative flow change = 0.003239
                        maximum  flow change = 0.3742 for Link p-582
                        maximum  head error  = 0.0004 for Link p-547

   214:05:00: Balanced after 2 trials
   
   214:10:00: Balancing the network:

              Trial  1: relative flow change = 0.040894
              Trial  2: relative flow change = 0.004316
                        maximum  flow change = 0.3447 for Link p-1144
                        maximum  head error  = 0.0000 for Link p-831

   214:10:00: Balanced after 2 trials
   
   214:15:00: Balancing the network:

              Trial  1: relative flow change = 0.051502
              Trial  2: relative flow change = 0.010331
              Trial  3: relative flow change = 0.000167
                        maximum  flow change = 0.0371 for Link p-243
                        maximum  head error  = 0.0000 for Link p-243

   214:15:00: Balanced after 3 trials
   
   214:20:00: Balancing the network:

              Trial  1: relative flow change = 0.042250
              Trial  2: relative flow change = 0.006930
                        maximum  flow change = 0.6368 for Link PRV_dist
                        maximum  head error  = 0.0001 for Link p-766

   214:20:00: Balanced after 2 trials
   214:20:00: Tank T_Zone is filling at 1.70 m
   
   214:25:00: Balancing the network:

              Trial  1: relative flow change = 0.051291
              Trial  2: relative flow change = 0.012648
              Trial  3: relative flow change = 0.000184
                        maximum  flow change = 0.0247 for Link p-115
                        maximum  head error  = 0.0000 for Link p-115

   214:25:00: Balanced after 3 trials
   
   214:30:00: Balancing the network:

              Trial  1: relative flow change = 0.055759
              Trial  2: relative flow change = 0.013278
              Trial  3: relative flow change = 0.000273
                        maximum  flow change = 0.0455 for Link p-324
                        maximum  head error  = 0.0000 for Link p-582

   214:30:00: Balanced after 3 trials
   
   214:35:00: Balancing the network:

              Trial  1: relative flow change = 0.052272
              Trial  2: relative flow change = 0.002830
                        maximum  flow change = 0.3079 for Link p-645
                        maximum  head error  = 0.0004 for Link p-831

   214:35:00: Balanced after 2 trials
   
   214:40:00: Balancing the network:

              Trial  1: relative flow change = 0.043185
              Trial  2: relative flow change = 0.016830
              Trial  3: relative flow change = 0.000287
                        maximum  flow change = 0.0471 for Link p-243
                        maximum  head error  = 0.0000 for Link p-243

   214:40:00: Balanced after 3 trials
   
   214:45:00: Balancing the network:

              Trial  1: relative flow change = 0.044469
              Trial  2: relative flow change = 0.013704
              Trial  3: relative flow change = 0.000193
                        maximum  flow change = 0.0445 for Link p-188
                        maximum  head error  = 0.0000 for Link p-196

   214:45:00: Balanced after 3 trials
   
   214:50:00: Balancing the network:

              Trial  1: relative flow change = 0.076868
              PRV PRV_inlet switched from open to active
              Trial  2: relative flow change = 0.004787
                        maximum  flow change = 0.3998 for Link PRV_dist
                        maximum  head error  = 0.0001 for Link p-766

   214:50:00: Balanced after 2 trials
   214:50:00: PRV PRV_inlet changed from open to active
   
   214:55:00: Balancing the network:

              Trial  1: relative flow change = 0.036494
              Trial  2: relative flow change = 0.004515
                        maximum  flow change = 2.1560 for Link PRV_inlet
                        maximum  head error  = 0.0001 for Link p-839

   214:55:00: Balanced after 2 trials
   
   215:00:00: Balancing the network:

              Trial  1: relative flow change = 0.051427
              Trial  2: relative flow change = 0.011818
              Trial  3: relative flow change = 0.000585
                        maximum  flow change = 0.5049 for Link PRV_inlet
                        maximum  head error  = 0.0000 for Link p-733

   215:00:00: Balanced after 3 trials
   
   215:05:00: Balancing the network:

              Trial  1: relative flow change = 0.042574
              Trial  2: relative flow change = 0.015343
              Trial  3: relative flow change = 0.001187
                        maximum  flow change = 1.1860 for Link 5
                        maximum  head error  = 0.0000 for Link 5

   215:05:00: Balanced after 3 trials
   
   215:10:00: Balancing the network:

              Trial  1: relative flow change = 0.049198
              Trial  2: relative flow change = 0.010118
              Trial  3: relative flow change = 0.000742
                        maximum  flow change = 0.7048 for Link PRV_inlet
                        maximum  head error  = 0.0000 for Link 5

   215:10:00: Balanced after 3 trials
   
   215:15:00: Balancing the network:

              Trial  1: relative flow change = 0.063474
              Trial  2: relative flow change = 0.016910
              Trial  3: relative flow change = 0.000909
                        maximum  flow change = 0.7701 for Link PRV_inlet
                        maximum  head error  = 0.0000 for Link 5

   215:15:00: Balanced after 3 trials
   
   215:20:00: Balancing the network:

              Trial  1: relative flow change = 0.048278
              Trial  2: relative flow change = 0.012590
              Trial  3: relative flow change = 0.001257
                        maximum  flow change = 0.9016 for Link PRV_inlet
                        maximum  head error  = 0.0000 for Link p-196

   215:20:00: Balanced after 3 trials
   
   215:25:00: Balancing the network:

              Trial  1: relative flow change = 0.038829
              Trial  2: relative flow change = 0.006734
                        maximum  flow change = 0.4929 for Link p-1144
                        maximum  head error  = 0.0001 for Link p-547

   215:25:00: Balanced after 2 trials
   
   215:30:00: Balancing the network:

              Trial  1: relative flow change = 0.035299
              Trial  2: relative flow change = 0.016260
              Trial  3: relative flow change = 0.001286
                        maximum  flow change = 1.0765 for Link PRV_inlet
                        maximum  head error  = 0.0000 for Link p-248

   215:30:00: Balanced after 3 trials
   
   215:35:00: Balancing the network:

              Trial  1: relative flow change = 0.071588
              Trial  2: relative flow change = 0.012432
              Trial  3: relative flow change = 0.000285
                        maximum  flow change = 0.2342 for Link PRV_inlet
                        maximum  head error  = 0.0000 for Link 5

   215:35:00: Balanced after 3 trials
   
   215:40:00: Balancing the network:

              Trial  1: relative flow change = 0.060866
              Trial  2: relative flow change = 0.010199
              Trial  3: relative flow change = 0.000218
                        maximum  flow change = 0.1083 for Link PRV_inlet
                        maximum  head error  = 0.0000 for Link p-729

   215:40:00: Balanced after 3 trials
   
   215:45:00: Balancing the network:

              Trial  1: relative flow change = 0.049102
              Trial  2: relative flow change = 0.006942
                        maximum  flow change = 4.7382 for Link PRV_inlet
                        maximum  head error  = 0.0001 for Link 5

   215:45:00: Balanced after 2 trials
   
   215:50:00: Balancing the network:

              Trial  1: relative flow change = 0.034366
              Trial  2: relative flow change = 0.003591
                        maximum  flow change = 0.3765 for Link PRV_inlet
                        maximum  head error  = 0.0001 for Link p-582

   215:50:00: Balanced after 2 trials
   
   215:55:00: Balancing the network:

              Trial  1: relative flow change = 0.027160
              Trial  2: relative flow change = 0.004024
                        maximum  flow change = 0.9297 for Link PRV_inlet
                        maximum  head error  = 0.0000 for Link p-879

   215:55:00: Balanced after 2 trials
   
   216:00:00: Balancing the network:

              Trial  1: relative flow change = 0.035444
              Trial  2: relative flow change = 0.004781
                        maximum  flow change = 1.5270 for Link 5
                        maximum  head error  = 0.0001 for Link p-789

   216:00:00: Balanced after 2 trials
   
  Hydraulic Flow Balance (m3/h)
  ================================
  Total Inflow:           380.000
  Consumer Demand:        416.675
  Demand Deficit:           0.000
  Emitter Flow:             0.000
  Leakage Flow:             0.000
  Total Outflow:          416.675
  Storage Flow:           -36.662
  Flow Ratio:               1.000
  ================================

  Water Quality Mass Balance (mg)
  ================================
  Initial Mass:       0.00000e+00
  Mass Inflow:        4.92486e+07
  Mass Outflow:       1.16799e+07
  Mass Reacted:       3.58973e+07
  Final Mass:         1.67184e+06
  Mass Ratio:         1.00001
  Total Segments:     1372
  ================================

  Analysis ended Tue Apr 21 09:26:15 2026
