  Page 1                                    Tue Apr 21 09:20:00 2026

  ******************************************************************
  *                           E P A N E T                          *
  *                   Hydraulic and Water Quality                  *
  *                   Analysis for Pipe Networks                   *
  *                          Version 2.3.04                        *
  ******************************************************************
  
  Processing MSX input file CY-DBP_competition_stream_competition_6days_4.msx
  
  Analysis begun Tue Apr 21 09:20:00 2026

   
  Hydraulic Status:
  -----------------------------------------------------------------------
     0:00:00: Balancing the network:

              Trial  1: relative flow change = 1.744631
              PRV PRV_inlet switched from active to closed
              Trial  2: relative flow change = 0.528592
              PRV PRV_dist switched from active to open
              PRV PRV_inlet switched from closed to active
              Trial  3: relative flow change = 0.421137
              PRV PRV_dist switched from open to active
              Trial  4: relative flow change = 0.249624
              Trial  5: relative flow change = 0.056239
              Trial  6: relative flow change = 0.012259
              Trial  7: relative flow change = 0.001257
                        maximum  flow change = 0.1209 for Link p-698
                        maximum  head error  = 0.0000 for Link p-698

     0:00:00: Balanced after 7 trials
     0:00:00: Reservoir WTP is emptying
     0:00:00: Tank T_Zone is filling at 5.00 m
   
     0:05:00: Balancing the network:

              Trial  1: relative flow change = 0.104476
              Trial  2: relative flow change = 0.016242
              Trial  3: relative flow change = 0.000407
                        maximum  flow change = 0.3298 for Link 5
                        maximum  head error  = 0.0000 for Link p-196

     0:05:00: Balanced after 3 trials
   
     0:10:00: Balancing the network:

              Trial  1: relative flow change = 0.051642
              Trial  2: relative flow change = 0.008019
                        maximum  flow change = 3.9614 for Link PRV_inlet
                        maximum  head error  = 0.0001 for Link 5

     0:10:00: Balanced after 2 trials
   
     0:15:00: Balancing the network:

              Trial  1: relative flow change = 0.037112
              Trial  2: relative flow change = 0.009155
                        maximum  flow change = 3.5072 for Link PRV_inlet
                        maximum  head error  = 0.0001 for Link 5

     0:15:00: Balanced after 2 trials
   
     0:20:00: Balancing the network:

              Trial  1: relative flow change = 0.040932
              Trial  2: relative flow change = 0.005541
                        maximum  flow change = 1.1584 for Link 5
                        maximum  head error  = 0.0004 for Link p-831

     0:20:00: Balanced after 2 trials
   
     0:25:00: Balancing the network:

              Trial  1: relative flow change = 0.107557
              Trial  2: relative flow change = 0.016914
              Trial  3: relative flow change = 0.000310
                        maximum  flow change = 0.0819 for Link 5
                        maximum  head error  = 0.0000 for Link p-582

     0:25:00: Balanced after 3 trials
   
     0:30:00: Balancing the network:

              Trial  1: relative flow change = 0.042037
              Trial  2: relative flow change = 0.005587
                        maximum  flow change = 0.3337 for Link PRV_dist
                        maximum  head error  = 0.0002 for Link p-582

     0:30:00: Balanced after 2 trials
   
     0:35:00: Balancing the network:

              Trial  1: relative flow change = 0.076793
              Trial  2: relative flow change = 0.016182
              Trial  3: relative flow change = 0.000829
                        maximum  flow change = 0.7118 for Link 5
                        maximum  head error  = 0.0000 for Link 5

     0:35:00: Balanced after 3 trials
   
     0:40:00: Balancing the network:

              Trial  1: relative flow change = 0.036134
              Trial  2: relative flow change = 0.012125
              Trial  3: relative flow change = 0.000933
                        maximum  flow change = 0.8213 for Link 5
                        maximum  head error  = 0.0000 for Link 5

     0:40:00: Balanced after 3 trials
   
     0:45:00: Balancing the network:

              Trial  1: relative flow change = 0.082121
              Trial  2: relative flow change = 0.011096
              Trial  3: relative flow change = 0.000356
                        maximum  flow change = 0.2479 for Link 5
                        maximum  head error  = 0.0000 for Link p-196

     0:45:00: Balanced after 3 trials
   
     0:50:00: Balancing the network:

              Trial  1: relative flow change = 0.032641
              Trial  2: relative flow change = 0.007688
                        maximum  flow change = 1.8707 for Link PRV_inlet
                        maximum  head error  = 0.0004 for Link p-729

     0:50:00: Balanced after 2 trials
   
     0:55:00: Balancing the network:

              Trial  1: relative flow change = 0.048013
              Trial  2: relative flow change = 0.008392
                        maximum  flow change = 2.9509 for Link PRV_inlet
                        maximum  head error  = 0.0003 for Link p-831

     0:55:00: Balanced after 2 trials
   
     1:00:00: Balancing the network:

              Trial  1: relative flow change = 0.042276
              Trial  2: relative flow change = 0.007423
                        maximum  flow change = 2.2526 for Link 5
                        maximum  head error  = 0.0002 for Link p-1004

     1:00:00: Balanced after 2 trials
   
     1:05:00: Balancing the network:

              Trial  1: relative flow change = 0.051494
              Trial  2: relative flow change = 0.006166
                        maximum  flow change = 1.8652 for Link 5
                        maximum  head error  = 0.0001 for Link p-831

     1:05:00: Balanced after 2 trials
   
     1:10:00: Balancing the network:

              Trial  1: relative flow change = 0.048416
              Trial  2: relative flow change = 0.013424
              Trial  3: relative flow change = 0.000975
                        maximum  flow change = 0.5662 for Link 5
                        maximum  head error  = 0.0000 for Link p-729

     1:10:00: Balanced after 3 trials
   
     1:15:00: Balancing the network:

              Trial  1: relative flow change = 0.043931
              Trial  2: relative flow change = 0.006134
                        maximum  flow change = 3.1872 for Link PRV_inlet
                        maximum  head error  = 0.0001 for Link p-582

     1:15:00: Balanced after 2 trials
   
     1:20:00: Balancing the network:

              Trial  1: relative flow change = 0.046244
              Trial  2: relative flow change = 0.007434
                        maximum  flow change = 1.9304 for Link PRV_inlet
                        maximum  head error  = 0.0001 for Link p-973

     1:20:00: Balanced after 2 trials
   
     1:25:00: Balancing the network:

              Trial  1: relative flow change = 0.041006
              Trial  2: relative flow change = 0.016795
              Trial  3: relative flow change = 0.001530
                        maximum  flow change = 1.0363 for Link PRV_inlet
                        maximum  head error  = 0.0000 for Link p-831

     1:25:00: Balanced after 3 trials
   
     1:30:00: Balancing the network:

              Trial  1: relative flow change = 0.033876
              Trial  2: relative flow change = 0.012963
              Trial  3: relative flow change = 0.001204
                        maximum  flow change = 0.7896 for Link PRV_inlet
                        maximum  head error  = 0.0000 for Link 5

     1:30:00: Balanced after 3 trials
   
     1:35:00: Balancing the network:

              Trial  1: relative flow change = 0.064018
              Trial  2: relative flow change = 0.010863
              Trial  3: relative flow change = 0.000355
                        maximum  flow change = 0.2263 for Link PRV_inlet
                        maximum  head error  = 0.0000 for Link p-582

     1:35:00: Balanced after 3 trials
   
     1:40:00: Balancing the network:

              Trial  1: relative flow change = 0.027735
              Trial  2: relative flow change = 0.010889
              Trial  3: relative flow change = 0.000878
                        maximum  flow change = 0.5913 for Link 5
                        maximum  head error  = 0.0000 for Link 5

     1:40:00: Balanced after 3 trials
   
     1:45:00: Balancing the network:

              Trial  1: relative flow change = 0.036783
              Trial  2: relative flow change = 0.005722
                        maximum  flow change = 0.5199 for Link PRV_inlet
                        maximum  head error  = 0.0001 for Link p-582

     1:45:00: Balanced after 2 trials
   
     1:50:00: Balancing the network:

              Trial  1: relative flow change = 0.037292
              Trial  2: relative flow change = 0.013872
              Trial  3: relative flow change = 0.001266
                        maximum  flow change = 0.8181 for Link 5
                        maximum  head error  = 0.0000 for Link 5

     1:50:00: Balanced after 3 trials
   
     1:55:00: Balancing the network:

              Trial  1: relative flow change = 0.042657
              Trial  2: relative flow change = 0.016888
              Trial  3: relative flow change = 0.001346
                        maximum  flow change = 0.8753 for Link 5
                        maximum  head error  = 0.0000 for Link 5

     1:55:00: Balanced after 3 trials
   
     2:00:00: Balancing the network:

              Trial  1: relative flow change = 0.046600
              Trial  2: relative flow change = 0.005761
                        maximum  flow change = 3.7244 for Link PRV_inlet
                        maximum  head error  = 0.0001 for Link 5

     2:00:00: Balanced after 2 trials
   
     2:05:00: Balancing the network:

              Trial  1: relative flow change = 0.048387
              Trial  2: relative flow change = 0.013162
              Trial  3: relative flow change = 0.001030
                        maximum  flow change = 0.6833 for Link 5
                        maximum  head error  = 0.0000 for Link 5

     2:05:00: Balanced after 3 trials
   
     2:10:00: Balancing the network:

              Trial  1: relative flow change = 0.036233
              Trial  2: relative flow change = 0.004325
                        maximum  flow change = 0.7375 for Link 5
                        maximum  head error  = 0.0000 for Link p-115

     2:10:00: Balanced after 2 trials
   
     2:15:00: Balancing the network:

              Trial  1: relative flow change = 0.036610
              Trial  2: relative flow change = 0.008821
                        maximum  flow change = 2.0006 for Link PRV_inlet
                        maximum  head error  = 0.0001 for Link p-766

     2:15:00: Balanced after 2 trials
   
     2:20:00: Balancing the network:

              Trial  1: relative flow change = 0.052674
              Trial  2: relative flow change = 0.014492
              Trial  3: relative flow change = 0.000904
                        maximum  flow change = 0.5238 for Link 5
                        maximum  head error  = 0.0000 for Link p-831

     2:20:00: Balanced after 3 trials
   
     2:25:00: Balancing the network:

              Trial  1: relative flow change = 0.033111
              Trial  2: relative flow change = 0.011181
              Trial  3: relative flow change = 0.000841
                        maximum  flow change = 0.5539 for Link PRV_inlet
                        maximum  head error  = 0.0000 for Link 5

     2:25:00: Balanced after 3 trials
   
     2:30:00: Balancing the network:

              Trial  1: relative flow change = 0.040599
              Trial  2: relative flow change = 0.007303
                        maximum  flow change = 1.7794 for Link 5
                        maximum  head error  = 0.0001 for Link p-766

     2:30:00: Balanced after 2 trials
   
     2:35:00: Balancing the network:

              Trial  1: relative flow change = 0.054735
              Trial  2: relative flow change = 0.011726
              Trial  3: relative flow change = 0.000755
                        maximum  flow change = 0.3938 for Link 5
                        maximum  head error  = 0.0000 for Link p-547

     2:35:00: Balanced after 3 trials
   
     2:40:00: Balancing the network:

              Trial  1: relative flow change = 0.042607
              Trial  2: relative flow change = 0.006989
                        maximum  flow change = 3.1357 for Link 5
                        maximum  head error  = 0.0001 for Link 5

     2:40:00: Balanced after 2 trials
   
     2:45:00: Balancing the network:

              Trial  1: relative flow change = 0.030636
              Trial  2: relative flow change = 0.004863
                        maximum  flow change = 0.2251 for Link p-243
                        maximum  head error  = 0.0001 for Link p-243

     2:45:00: Balanced after 2 trials
   
     2:50:00: Balancing the network:

              Trial  1: relative flow change = 0.056473
              Trial  2: relative flow change = 0.015360
              Trial  3: relative flow change = 0.000911
                        maximum  flow change = 0.3931 for Link PRV_inlet
                        maximum  head error  = 0.0000 for Link p-1601

     2:50:00: Balanced after 3 trials
   
     2:55:00: Balancing the network:

              Trial  1: relative flow change = 0.035525
              Trial  2: relative flow change = 0.006096
                        maximum  flow change = 1.9192 for Link PRV_inlet
                        maximum  head error  = 0.0002 for Link p-948

     2:55:00: Balanced after 2 trials
   
     3:00:00: Balancing the network:

              Trial  1: relative flow change = 0.040380
              Trial  2: relative flow change = 0.007734
                        maximum  flow change = 1.3673 for Link PRV_inlet
                        maximum  head error  = 0.0004 for Link p-582

     3:00:00: Balanced after 2 trials
   
     3:05:00: Balancing the network:

              Trial  1: relative flow change = 0.058101
              Trial  2: relative flow change = 0.009240
                        maximum  flow change = 5.2046 for Link PRV_inlet
                        maximum  head error  = 0.0002 for Link 5

     3:05:00: Balanced after 2 trials
   
     3:10:00: Balancing the network:

              Trial  1: relative flow change = 0.026423
              Trial  2: relative flow change = 0.007925
                        maximum  flow change = 0.5274 for Link p-1144
                        maximum  head error  = 0.0001 for Link p-461

     3:10:00: Balanced after 2 trials
   
     3:15:00: Balancing the network:

              Trial  1: relative flow change = 0.084454
              Trial  2: relative flow change = 0.015905
              Trial  3: relative flow change = 0.000459
                        maximum  flow change = 0.3174 for Link 5
                        maximum  head error  = 0.0000 for Link p-831

     3:15:00: Balanced after 3 trials
   
     3:20:00: Balancing the network:

              Trial  1: relative flow change = 0.037644
              Trial  2: relative flow change = 0.011185
              Trial  3: relative flow change = 0.000796
                        maximum  flow change = 0.4831 for Link 5
                        maximum  head error  = 0.0000 for Link p-196

     3:20:00: Balanced after 3 trials
   
     3:25:00: Balancing the network:

              Trial  1: relative flow change = 0.052014
              Trial  2: relative flow change = 0.006551
                        maximum  flow change = 4.0438 for Link 5
                        maximum  head error  = 0.0001 for Link 5

     3:25:00: Balanced after 2 trials
   
     3:30:00: Balancing the network:

              Trial  1: relative flow change = 0.037084
              Trial  2: relative flow change = 0.005052
                        maximum  flow change = 2.3065 for Link 5
                        maximum  head error  = 0.0000 for Link 5

     3:30:00: Balanced after 2 trials
   
     3:35:00: Balancing the network:

              Trial  1: relative flow change = 0.045715
              Trial  2: relative flow change = 0.010899
              Trial  3: relative flow change = 0.000595
                        maximum  flow change = 0.4709 for Link PRV_inlet
                        maximum  head error  = 0.0000 for Link 5

     3:35:00: Balanced after 3 trials
   
     3:40:00: Balancing the network:

              Trial  1: relative flow change = 0.039556
              Trial  2: relative flow change = 0.007300
                        maximum  flow change = 2.5850 for Link PRV_inlet
                        maximum  head error  = 0.0001 for Link p-1063

     3:40:00: Balanced after 2 trials
   
     3:45:00: Balancing the network:

              Trial  1: relative flow change = 0.066669
              Trial  2: relative flow change = 0.014731
              Trial  3: relative flow change = 0.000936
                        maximum  flow change = 0.4498 for Link PRV_inlet
                        maximum  head error  = 0.0001 for Link p-831

     3:45:00: Balanced after 3 trials
   
     3:50:00: Balancing the network:

              Trial  1: relative flow change = 0.042472
              Trial  2: relative flow change = 0.008742
                        maximum  flow change = 3.0411 for Link 5
                        maximum  head error  = 0.0001 for Link p-766

     3:50:00: Balanced after 2 trials
   
     3:55:00: Balancing the network:

              Trial  1: relative flow change = 0.042401
              Trial  2: relative flow change = 0.009723
                        maximum  flow change = 2.9271 for Link 5
                        maximum  head error  = 0.0001 for Link 5

     3:55:00: Balanced after 2 trials
   
     4:00:00: Balancing the network:

              Trial  1: relative flow change = 0.052578
              Trial  2: relative flow change = 0.012714
              Trial  3: relative flow change = 0.000546
                        maximum  flow change = 0.4307 for Link PRV_inlet
                        maximum  head error  = 0.0000 for Link 5

     4:00:00: Balanced after 3 trials
   
     4:05:00: Balancing the network:

              Trial  1: relative flow change = 0.044025
              Trial  2: relative flow change = 0.009503
                        maximum  flow change = 4.2275 for Link PRV_inlet
                        maximum  head error  = 0.0001 for Link 5

     4:05:00: Balanced after 2 trials
   
     4:10:00: Balancing the network:

              Trial  1: relative flow change = 0.073469
              Trial  2: relative flow change = 0.015475
              Trial  3: relative flow change = 0.000829
                        maximum  flow change = 0.4981 for Link 5
                        maximum  head error  = 0.0000 for Link p-243

     4:10:00: Balanced after 3 trials
   
     4:15:00: Balancing the network:

              Trial  1: relative flow change = 0.091654
              Trial  2: relative flow change = 0.019358
              Trial  3: relative flow change = 0.000683
                        maximum  flow change = 0.5632 for Link PRV_inlet
                        maximum  head error  = 0.0000 for Link p-831

     4:15:00: Balanced after 3 trials
   
     4:20:00: Balancing the network:

              Trial  1: relative flow change = 0.041782
              Trial  2: relative flow change = 0.008438
                        maximum  flow change = 2.1771 for Link 5
                        maximum  head error  = 0.0001 for Link p-973

     4:20:00: Balanced after 2 trials
   
     4:25:00: Balancing the network:

              Trial  1: relative flow change = 0.053719
              Trial  2: relative flow change = 0.016811
              Trial  3: relative flow change = 0.001399
                        maximum  flow change = 0.8537 for Link 5
                        maximum  head error  = 0.0001 for Link p-766

     4:25:00: Balanced after 3 trials
   
     4:30:00: Balancing the network:

              Trial  1: relative flow change = 0.029717
              Trial  2: relative flow change = 0.007219
                        maximum  flow change = 0.5566 for Link PRV_dist
                        maximum  head error  = 0.0001 for Link p-11

     4:30:00: Balanced after 2 trials
   
     4:35:00: Balancing the network:

              Trial  1: relative flow change = 0.041702
              Trial  2: relative flow change = 0.015667
              Trial  3: relative flow change = 0.001283
                        maximum  flow change = 0.9540 for Link PRV_inlet
                        maximum  head error  = 0.0001 for Link p-196

     4:35:00: Balanced after 3 trials
   
     4:40:00: Balancing the network:

              Trial  1: relative flow change = 0.056184
              Trial  2: relative flow change = 0.008961
                        maximum  flow change = 6.4361 for Link PRV_inlet
                        maximum  head error  = 0.0003 for Link 5

     4:40:00: Balanced after 2 trials
   
     4:45:00: Balancing the network:

              Trial  1: relative flow change = 0.040706
              Trial  2: relative flow change = 0.006561
                        maximum  flow change = 0.3829 for Link PRV_dist
                        maximum  head error  = 0.0001 for Link p-243

     4:45:00: Balanced after 2 trials
   
     4:50:00: Balancing the network:

              Trial  1: relative flow change = 0.050252
              Trial  2: relative flow change = 0.005795
                        maximum  flow change = 4.7143 for Link PRV_inlet
                        maximum  head error  = 0.0001 for Link 5

     4:50:00: Balanced after 2 trials
   
     4:55:00: Balancing the network:

              Trial  1: relative flow change = 0.052412
              Trial  2: relative flow change = 0.009885
                        maximum  flow change = 3.1901 for Link 5
                        maximum  head error  = 0.0001 for Link p-582

     4:55:00: Balanced after 2 trials
   
     5:00:00: Balancing the network:

              Trial  1: relative flow change = 0.053420
              Trial  2: relative flow change = 0.004774
                        maximum  flow change = 1.1463 for Link 5
                        maximum  head error  = 0.0001 for Link p-766

     5:00:00: Balanced after 2 trials
   
     5:05:00: Balancing the network:

              Trial  1: relative flow change = 0.070195
              Trial  2: relative flow change = 0.017528
              Trial  3: relative flow change = 0.000826
                        maximum  flow change = 0.9409 for Link PRV_inlet
                        maximum  head error  = 0.0000 for Link 5

     5:05:00: Balanced after 3 trials
   
     5:10:00: Balancing the network:

              Trial  1: relative flow change = 0.059430
              Trial  2: relative flow change = 0.015087
              Trial  3: relative flow change = 0.000741
                        maximum  flow change = 0.8573 for Link 5
                        maximum  head error  = 0.0000 for Link 5

     5:10:00: Balanced after 3 trials
   
     5:15:00: Balancing the network:

              Trial  1: relative flow change = 0.049804
              Trial  2: relative flow change = 0.006620
                        maximum  flow change = 5.0710 for Link PRV_inlet
                        maximum  head error  = 0.0002 for Link 5

     5:15:00: Balanced after 2 trials
   
     5:20:00: Balancing the network:

              Trial  1: relative flow change = 0.052216
              Trial  2: relative flow change = 0.017322
              Trial  3: relative flow change = 0.001305
                        maximum  flow change = 1.6509 for Link PRV_inlet
                        maximum  head error  = 0.0000 for Link 5

     5:20:00: Balanced after 3 trials
   
     5:25:00: Balancing the network:

              Trial  1: relative flow change = 0.055355
              Trial  2: relative flow change = 0.012439
              Trial  3: relative flow change = 0.000824
                        maximum  flow change = 0.8136 for Link PRV_inlet
                        maximum  head error  = 0.0000 for Link p-831

     5:25:00: Balanced after 3 trials
   
     5:30:00: Balancing the network:

              Trial  1: relative flow change = 0.053945
              Trial  2: relative flow change = 0.010545
              Trial  3: relative flow change = 0.000827
                        maximum  flow change = 0.9166 for Link 5
                        maximum  head error  = 0.0000 for Link p-196

     5:30:00: Balanced after 3 trials
   
     5:35:00: Balancing the network:

              Trial  1: relative flow change = 0.086779
              Trial  2: relative flow change = 0.012949
              Trial  3: relative flow change = 0.000267
                        maximum  flow change = 0.3408 for Link 5
                        maximum  head error  = 0.0000 for Link p-582

     5:35:00: Balanced after 3 trials
   
     5:40:00: Balancing the network:

              Trial  1: relative flow change = 0.039306
              Trial  2: relative flow change = 0.010976
              Trial  3: relative flow change = 0.000908
                        maximum  flow change = 1.1224 for Link PRV_inlet
                        maximum  head error  = 0.0000 for Link 5

     5:40:00: Balanced after 3 trials
   
     5:45:00: Balancing the network:

              Trial  1: relative flow change = 0.046811
              Trial  2: relative flow change = 0.006382
                        maximum  flow change = 4.8872 for Link PRV_inlet
                        maximum  head error  = 0.0001 for Link 5

     5:45:00: Balanced after 2 trials
   
     5:50:00: Balancing the network:

              Trial  1: relative flow change = 0.052576
              Trial  2: relative flow change = 0.010002
              Trial  3: relative flow change = 0.000438
                        maximum  flow change = 0.6035 for Link 5
                        maximum  head error  = 0.0000 for Link 5

     5:50:00: Balanced after 3 trials
   
     5:55:00: Balancing the network:

              Trial  1: relative flow change = 0.051414
              Trial  2: relative flow change = 0.007479
                        maximum  flow change = 8.0980 for Link 5
                        maximum  head error  = 0.0004 for Link 5

     5:55:00: Balanced after 2 trials
   
     6:00:00: Balancing the network:

              Trial  1: relative flow change = 0.041650
              Trial  2: relative flow change = 0.007407
                        maximum  flow change = 6.4415 for Link 5
                        maximum  head error  = 0.0003 for Link 5

     6:00:00: Balanced after 2 trials
   
     6:05:00: Balancing the network:

              Trial  1: relative flow change = 0.049837
              Trial  2: relative flow change = 0.009181
                        maximum  flow change = 2.5143 for Link PRV_inlet
                        maximum  head error  = 0.0005 for Link p-766

     6:05:00: Balanced after 2 trials
   
     6:10:00: Balancing the network:

              Trial  1: relative flow change = 0.054721
              Trial  2: relative flow change = 0.004352
                        maximum  flow change = 5.2180 for Link 5
                        maximum  head error  = 0.0002 for Link 5

     6:10:00: Balanced after 2 trials
     6:10:00: Tank T_Zone is emptying at 5.46 m
   
     6:15:00: Balancing the network:

              Trial  1: relative flow change = 0.044124
              Trial  2: relative flow change = 0.005833
                        maximum  flow change = 1.6864 for Link PRV_inlet
                        maximum  head error  = 0.0004 for Link p-582

     6:15:00: Balanced after 2 trials
   
     6:20:00: Balancing the network:

              Trial  1: relative flow change = 0.044898
              Trial  2: relative flow change = 0.004325
                        maximum  flow change = 6.8584 for Link PRV_inlet
                        maximum  head error  = 0.0003 for Link 5

     6:20:00: Balanced after 2 trials
   
     6:25:00: Balancing the network:

              Trial  1: relative flow change = 0.030863
              Trial  2: relative flow change = 0.003877
                        maximum  flow change = 0.4940 for Link p-1144
                        maximum  head error  = 0.0001 for Link p-11

     6:25:00: Balanced after 2 trials
   
     6:30:00: Balancing the network:

              Trial  1: relative flow change = 0.066034
              Trial  2: relative flow change = 0.006920
                        maximum  flow change = 11.3020 for Link PRV_inlet
                        maximum  head error  = 0.0007 for Link 5

     6:30:00: Balanced after 2 trials
   
     6:35:00: Balancing the network:

              Trial  1: relative flow change = 0.055418
              Trial  2: relative flow change = 0.007974
                        maximum  flow change = 5.9822 for Link 5
                        maximum  head error  = 0.0002 for Link 5

     6:35:00: Balanced after 2 trials
   
     6:40:00: Balancing the network:

              Trial  1: relative flow change = 0.037635
              Trial  2: relative flow change = 0.003998
                        maximum  flow change = 2.7282 for Link 5
                        maximum  head error  = 0.0004 for Link p-831

     6:40:00: Balanced after 2 trials
   
     6:45:00: Balancing the network:

              Trial  1: relative flow change = 0.037149
              Trial  2: relative flow change = 0.002107
                        maximum  flow change = 0.9178 for Link PRV_inlet
                        maximum  head error  = 0.0001 for Link p-196

     6:45:00: Balanced after 2 trials
   
     6:50:00: Balancing the network:

              Trial  1: relative flow change = 0.062368
              Trial  2: relative flow change = 0.013591
              Trial  3: relative flow change = 0.000483
                        maximum  flow change = 1.0409 for Link PRV_inlet
                        maximum  head error  = 0.0000 for Link 5

     6:50:00: Balanced after 3 trials
   
     6:55:00: Balancing the network:

              Trial  1: relative flow change = 0.041646
              Trial  2: relative flow change = 0.013464
              Trial  3: relative flow change = 0.000921
                        maximum  flow change = 1.7512 for Link PRV_inlet
                        maximum  head error  = 0.0000 for Link 5

     6:55:00: Balanced after 3 trials
   
     7:00:00: Balancing the network:

              Trial  1: relative flow change = 0.049652
              Trial  2: relative flow change = 0.008402
                        maximum  flow change = 11.1876 for Link PRV_inlet
                        maximum  head error  = 0.0007 for Link 5

     7:00:00: Balanced after 2 trials
   
     7:05:00: Balancing the network:

              Trial  1: relative flow change = 0.046358
              Trial  2: relative flow change = 0.007606
                        maximum  flow change = 7.5793 for Link PRV_inlet
                        maximum  head error  = 0.0003 for Link 5

     7:05:00: Balanced after 2 trials
   
     7:10:00: Balancing the network:

              Trial  1: relative flow change = 0.099096
              Trial  2: relative flow change = 0.012882
              Trial  3: relative flow change = 0.000130
                        maximum  flow change = 0.2766 for Link PRV_inlet
                        maximum  head error  = 0.0000 for Link 5

     7:10:00: Balanced after 3 trials
   
     7:15:00: Balancing the network:

              Trial  1: relative flow change = 0.068516
              Trial  2: relative flow change = 0.007223
                        maximum  flow change = 10.1113 for Link PRV_inlet
                        maximum  head error  = 0.0008 for Link p-582

     7:15:00: Balanced after 2 trials
   
     7:20:00: Balancing the network:

              Trial  1: relative flow change = 0.041333
              Trial  2: relative flow change = 0.014487
              Trial  3: relative flow change = 0.001063
                        maximum  flow change = 2.1650 for Link PRV_inlet
                        maximum  head error  = 0.0000 for Link 5

     7:20:00: Balanced after 3 trials
   
     7:25:00: Balancing the network:

              Trial  1: relative flow change = 0.051173
              Trial  2: relative flow change = 0.017738
              Trial  3: relative flow change = 0.001461
                        maximum  flow change = 2.4644 for Link PRV_inlet
                        maximum  head error  = 0.0001 for Link p-196

     7:25:00: Balanced after 3 trials
   
     7:30:00: Balancing the network:

              Trial  1: relative flow change = 0.040129
              Trial  2: relative flow change = 0.016568
              Trial  3: relative flow change = 0.001047
                        maximum  flow change = 2.0272 for Link PRV_inlet
                        maximum  head error  = 0.0000 for Link 5

     7:30:00: Balanced after 3 trials
   
     7:35:00: Balancing the network:

              Trial  1: relative flow change = 0.046688
              Trial  2: relative flow change = 0.012629
              Trial  3: relative flow change = 0.000919
                        maximum  flow change = 1.7004 for Link PRV_inlet
                        maximum  head error  = 0.0000 for Link 5

     7:35:00: Balanced after 3 trials
   
     7:40:00: Balancing the network:

              Trial  1: relative flow change = 0.041291
              Trial  2: relative flow change = 0.007553
                        maximum  flow change = 7.5160 for Link 5
                        maximum  head error  = 0.0007 for Link p-831

     7:40:00: Balanced after 2 trials
   
     7:45:00: Balancing the network:

              Trial  1: relative flow change = 0.047166
              Trial  2: relative flow change = 0.014780
              Trial  3: relative flow change = 0.001014
                        maximum  flow change = 1.8372 for Link 5
                        maximum  head error  = 0.0000 for Link 5

     7:45:00: Balanced after 3 trials
   
     7:50:00: Balancing the network:

              Trial  1: relative flow change = 0.037584
              Trial  2: relative flow change = 0.006305
                        maximum  flow change = 5.9449 for Link PRV_inlet
                        maximum  head error  = 0.0007 for Link p-831

     7:50:00: Balanced after 2 trials
   
     7:55:00: Balancing the network:

              Trial  1: relative flow change = 0.063764
              Trial  2: relative flow change = 0.014366
              Trial  3: relative flow change = 0.000621
                        maximum  flow change = 1.2534 for Link 5
                        maximum  head error  = 0.0000 for Link 5

     7:55:00: Balanced after 3 trials
   
     8:00:00: Balancing the network:

              Trial  1: relative flow change = 0.035545
              Trial  2: relative flow change = 0.004539
                        maximum  flow change = 6.0263 for Link 5
                        maximum  head error  = 0.0002 for Link 5

     8:00:00: Balanced after 2 trials
   
     8:05:00: Balancing the network:

              Trial  1: relative flow change = 0.042053
              Trial  2: relative flow change = 0.012157
              Trial  3: relative flow change = 0.000646
                        maximum  flow change = 1.3342 for Link PRV_inlet
                        maximum  head error  = 0.0000 for Link 5

     8:05:00: Balanced after 3 trials
   
     8:10:00: Balancing the network:

              Trial  1: relative flow change = 0.037021
              Trial  2: relative flow change = 0.005557
                        maximum  flow change = 0.7776 for Link p-1144
                        maximum  head error  = 0.0001 for Link p-278

     8:10:00: Balanced after 2 trials
   
     8:15:00: Balancing the network:

              Trial  1: relative flow change = 0.036242
              Trial  2: relative flow change = 0.010142
              Trial  3: relative flow change = 0.000665
                        maximum  flow change = 1.4247 for Link PRV_inlet
                        maximum  head error  = 0.0000 for Link 5

     8:15:00: Balanced after 3 trials
   
     8:20:00: Balancing the network:

              Trial  1: relative flow change = 0.041522
              Trial  2: relative flow change = 0.007390
                        maximum  flow change = 1.1188 for Link PRV_dist
                        maximum  head error  = 0.0002 for Link p-11

     8:20:00: Balanced after 2 trials
   
     8:25:00: Balancing the network:

              Trial  1: relative flow change = 0.045690
              Trial  2: relative flow change = 0.009719
                        maximum  flow change = 3.3880 for Link 5
                        maximum  head error  = 0.0004 for Link p-11

     8:25:00: Balanced after 2 trials
   
     8:30:00: Balancing the network:

              Trial  1: relative flow change = 0.054625
              Trial  2: relative flow change = 0.009427
                        maximum  flow change = 11.3752 for Link PRV_inlet
                        maximum  head error  = 0.0007 for Link 5

     8:30:00: Balanced after 2 trials
   
     8:35:00: Balancing the network:

              Trial  1: relative flow change = 0.066798
              Trial  2: relative flow change = 0.013110
              Trial  3: relative flow change = 0.000513
                        maximum  flow change = 0.9036 for Link PRV_inlet
                        maximum  head error  = 0.0000 for Link p-582

     8:35:00: Balanced after 3 trials
   
     8:40:00: Balancing the network:

              Trial  1: relative flow change = 0.038720
              Trial  2: relative flow change = 0.004136
                        maximum  flow change = 0.5446 for Link PRV_dist
                        maximum  head error  = 0.0002 for Link p-582

     8:40:00: Balanced after 2 trials
   
     8:45:00: Balancing the network:

              Trial  1: relative flow change = 0.060794
              Trial  2: relative flow change = 0.010688
              Trial  3: relative flow change = 0.000385
                        maximum  flow change = 0.8142 for Link PRV_inlet
                        maximum  head error  = 0.0000 for Link 5

     8:45:00: Balanced after 3 trials
   
     8:50:00: Balancing the network:

              Trial  1: relative flow change = 0.052614
              Trial  2: relative flow change = 0.012270
              Trial  3: relative flow change = 0.001146
                        maximum  flow change = 2.1067 for Link 5
                        maximum  head error  = 0.0000 for Link 5

     8:50:00: Balanced after 3 trials
   
     8:55:00: Balancing the network:

              Trial  1: relative flow change = 0.040474
              Trial  2: relative flow change = 0.007810
                        maximum  flow change = 3.2141 for Link PRV_inlet
                        maximum  head error  = 0.0002 for Link p-278

     8:55:00: Balanced after 2 trials
   
     9:00:00: Balancing the network:

              Trial  1: relative flow change = 0.033413
              Trial  2: relative flow change = 0.003150
                        maximum  flow change = 1.3820 for Link 5
                        maximum  head error  = 0.0003 for Link p-729

     9:00:00: Balanced after 2 trials
   
     9:05:00: Balancing the network:

              Trial  1: relative flow change = 0.050165
              Trial  2: relative flow change = 0.008976
                        maximum  flow change = 5.1821 for Link PRV_inlet
                        maximum  head error  = 0.0005 for Link p-729

     9:05:00: Balanced after 2 trials
   
     9:10:00: Balancing the network:

              Trial  1: relative flow change = 0.038655
              Trial  2: relative flow change = 0.003215
                        maximum  flow change = 1.7895 for Link 5
                        maximum  head error  = 0.0001 for Link p-729

     9:10:00: Balanced after 2 trials
   
     9:15:00: Balancing the network:

              Trial  1: relative flow change = 0.079579
              Trial  2: relative flow change = 0.010438
              Trial  3: relative flow change = 0.000292
                        maximum  flow change = 0.5475 for Link 5
                        maximum  head error  = 0.0000 for Link p-196

     9:15:00: Balanced after 3 trials
   
     9:20:00: Balancing the network:

              Trial  1: relative flow change = 0.053525
              Trial  2: relative flow change = 0.005424
                        maximum  flow change = 4.3370 for Link PRV_inlet
                        maximum  head error  = 0.0012 for Link p-729

     9:20:00: Balanced after 2 trials
   
     9:25:00: Balancing the network:

              Trial  1: relative flow change = 0.051877
              Trial  2: relative flow change = 0.006127
                        maximum  flow change = 2.9693 for Link PRV_inlet
                        maximum  head error  = 0.0017 for Link p-831

     9:25:00: Balanced after 2 trials
   
     9:30:00: Balancing the network:

              Trial  1: relative flow change = 0.038028
              Trial  2: relative flow change = 0.006263
                        maximum  flow change = 1.7385 for Link 5
                        maximum  head error  = 0.0001 for Link p-461

     9:30:00: Balanced after 2 trials
   
     9:35:00: Balancing the network:

              Trial  1: relative flow change = 0.040582
              Trial  2: relative flow change = 0.011307
              Trial  3: relative flow change = 0.000864
                        maximum  flow change = 1.3749 for Link PRV_inlet
                        maximum  head error  = 0.0000 for Link p-547

     9:35:00: Balanced after 3 trials
   
     9:40:00: Balancing the network:

              Trial  1: relative flow change = 0.051713
              Trial  2: relative flow change = 0.008540
                        maximum  flow change = 6.4615 for Link PRV_inlet
                        maximum  head error  = 0.0002 for Link 5

     9:40:00: Balanced after 2 trials
   
     9:45:00: Balancing the network:

              Trial  1: relative flow change = 0.049368
              Trial  2: relative flow change = 0.003162
                        maximum  flow change = 0.4315 for Link PRV_inlet
                        maximum  head error  = 0.0002 for Link p-582

     9:45:00: Balanced after 2 trials
   
     9:50:00: Balancing the network:

              Trial  1: relative flow change = 0.046099
              Trial  2: relative flow change = 0.003036
                        maximum  flow change = 2.1854 for Link 5
                        maximum  head error  = 0.0001 for Link p-1477

     9:50:00: Balanced after 2 trials
   
     9:55:00: Balancing the network:

              Trial  1: relative flow change = 0.068794
              Trial  2: relative flow change = 0.019865
              Trial  3: relative flow change = 0.001149
                        maximum  flow change = 1.8517 for Link 5
                        maximum  head error  = 0.0001 for Link p-196

     9:55:00: Balanced after 3 trials
   
    10:00:00: Balancing the network:

              Trial  1: relative flow change = 0.057975
              Trial  2: relative flow change = 0.014502
              Trial  3: relative flow change = 0.000866
                        maximum  flow change = 1.5783 for Link 5
                        maximum  head error  = 0.0000 for Link 5

    10:00:00: Balanced after 3 trials
   
    10:05:00: Balancing the network:

              Trial  1: relative flow change = 0.054770
              Trial  2: relative flow change = 0.015047
              Trial  3: relative flow change = 0.001223
                        maximum  flow change = 1.9918 for Link PRV_inlet
                        maximum  head error  = 0.0000 for Link 5

    10:05:00: Balanced after 3 trials
   
    10:10:00: Balancing the network:

              Trial  1: relative flow change = 0.044693
              Trial  2: relative flow change = 0.005926
                        maximum  flow change = 4.0994 for Link PRV_inlet
                        maximum  head error  = 0.0002 for Link p-766

    10:10:00: Balanced after 2 trials
   
    10:15:00: Balancing the network:

              Trial  1: relative flow change = 0.039655
              Trial  2: relative flow change = 0.012589
              Trial  3: relative flow change = 0.000735
                        maximum  flow change = 1.3645 for Link PRV_inlet
                        maximum  head error  = 0.0000 for Link 5

    10:15:00: Balanced after 3 trials
   
    10:20:00: Balancing the network:

              Trial  1: relative flow change = 0.050850
              Trial  2: relative flow change = 0.005757
                        maximum  flow change = 1.1574 for Link PRV_inlet
                        maximum  head error  = 0.0005 for Link p-1098

    10:20:00: Balanced after 2 trials
   
    10:25:00: Balancing the network:

              Trial  1: relative flow change = 0.059125
              Trial  2: relative flow change = 0.008677
                        maximum  flow change = 8.9996 for Link 5
                        maximum  head error  = 0.0005 for Link 5

    10:25:00: Balanced after 2 trials
   
    10:30:00: Balancing the network:

              Trial  1: relative flow change = 0.058765
              Trial  2: relative flow change = 0.009481
                        maximum  flow change = 3.3440 for Link 5
                        maximum  head error  = 0.0003 for Link p-115

    10:30:00: Balanced after 2 trials
   
    10:35:00: Balancing the network:

              Trial  1: relative flow change = 0.065043
              Trial  2: relative flow change = 0.010122
              Trial  3: relative flow change = 0.000313
                        maximum  flow change = 0.5441 for Link 5
                        maximum  head error  = 0.0000 for Link 5

    10:35:00: Balanced after 3 trials
   
    10:40:00: Balancing the network:

              Trial  1: relative flow change = 0.045397
              Trial  2: relative flow change = 0.007718
                        maximum  flow change = 10.1631 for Link 5
                        maximum  head error  = 0.0015 for Link p-582

    10:40:00: Balanced after 2 trials
   
    10:45:00: Balancing the network:

              Trial  1: relative flow change = 0.041457
              Trial  2: relative flow change = 0.006801
                        maximum  flow change = 4.5657 for Link PRV_inlet
                        maximum  head error  = 0.0001 for Link 5

    10:45:00: Balanced after 2 trials
   
    10:50:00: Balancing the network:

              Trial  1: relative flow change = 0.043700
              Trial  2: relative flow change = 0.004064
                        maximum  flow change = 4.7490 for Link PRV_inlet
                        maximum  head error  = 0.0001 for Link 5

    10:50:00: Balanced after 2 trials
   
    10:55:00: Balancing the network:

              Trial  1: relative flow change = 0.038091
              Trial  2: relative flow change = 0.003582
                        maximum  flow change = 3.0821 for Link PRV_inlet
                        maximum  head error  = 0.0001 for Link p-582

    10:55:00: Balanced after 2 trials
   
    11:00:00: Balancing the network:

              Trial  1: relative flow change = 0.040505
              Trial  2: relative flow change = 0.012472
              Trial  3: relative flow change = 0.000971
                        maximum  flow change = 1.4235 for Link 5
                        maximum  head error  = 0.0001 for Link p-582

    11:00:00: Balanced after 3 trials
   
    11:05:00: Balancing the network:

              Trial  1: relative flow change = 0.048552
              Trial  2: relative flow change = 0.014259
              Trial  3: relative flow change = 0.001054
                        maximum  flow change = 1.7812 for Link PRV_inlet
                        maximum  head error  = 0.0000 for Link 5

    11:05:00: Balanced after 3 trials
   
    11:10:00: Balancing the network:

              Trial  1: relative flow change = 0.034819
              Trial  2: relative flow change = 0.002973
                        maximum  flow change = 1.2333 for Link 5
                        maximum  head error  = 0.0004 for Link p-729

    11:10:00: Balanced after 2 trials
   
    11:15:00: Balancing the network:

              Trial  1: relative flow change = 0.069649
              Trial  2: relative flow change = 0.011384
              Trial  3: relative flow change = 0.000237
                        maximum  flow change = 0.3033 for Link PRV_inlet
                        maximum  head error  = 0.0000 for Link p-831

    11:15:00: Balanced after 3 trials
   
    11:20:00: Balancing the network:

              Trial  1: relative flow change = 0.034247
              Trial  2: relative flow change = 0.019234
              Trial  3: relative flow change = 0.001568
                        maximum  flow change = 2.4739 for Link PRV_inlet
                        maximum  head error  = 0.0000 for Link p-243

    11:20:00: Balanced after 3 trials
   
    11:25:00: Balancing the network:

              Trial  1: relative flow change = 0.036077
              Trial  2: relative flow change = 0.010071
              Trial  3: relative flow change = 0.000695
                        maximum  flow change = 1.0097 for Link PRV_inlet
                        maximum  head error  = 0.0000 for Link p-582

    11:25:00: Balanced after 3 trials
   
    11:30:00: Balancing the network:

              Trial  1: relative flow change = 0.037190
              Trial  2: relative flow change = 0.015344
              Trial  3: relative flow change = 0.001126
                        maximum  flow change = 1.8507 for Link PRV_inlet
                        maximum  head error  = 0.0000 for Link 5

    11:30:00: Balanced after 3 trials
   
    11:35:00: Balancing the network:

              Trial  1: relative flow change = 0.039277
              Trial  2: relative flow change = 0.007335
                        maximum  flow change = 5.9696 for Link 5
                        maximum  head error  = 0.0002 for Link p-582

    11:35:00: Balanced after 2 trials
   
    11:40:00: Balancing the network:

              Trial  1: relative flow change = 0.040718
              Trial  2: relative flow change = 0.006296
                        maximum  flow change = 4.6506 for Link PRV_inlet
                        maximum  head error  = 0.0001 for Link p-582

    11:40:00: Balanced after 2 trials
   
    11:45:00: Balancing the network:

              Trial  1: relative flow change = 0.060864
              Trial  2: relative flow change = 0.009547
                        maximum  flow change = 11.9838 for Link PRV_inlet
                        maximum  head error  = 0.0008 for Link 5

    11:45:00: Balanced after 2 trials
   
    11:50:00: Balancing the network:

              Trial  1: relative flow change = 0.038387
              Trial  2: relative flow change = 0.009391
                        maximum  flow change = 1.5677 for Link PRV_inlet
                        maximum  head error  = 0.0012 for Link p-243

    11:50:00: Balanced after 2 trials
   
    11:55:00: Balancing the network:

              Trial  1: relative flow change = 0.077204
              Trial  2: relative flow change = 0.014086
              Trial  3: relative flow change = 0.000409
                        maximum  flow change = 0.5778 for Link PRV_inlet
                        maximum  head error  = 0.0000 for Link p-196

    11:55:00: Balanced after 3 trials
   
    12:00:00: Balancing the network:

              Trial  1: relative flow change = 0.044876
              Trial  2: relative flow change = 0.010546
              Trial  3: relative flow change = 0.000826
                        maximum  flow change = 1.3462 for Link 5
                        maximum  head error  = 0.0000 for Link 5

    12:00:00: Balanced after 3 trials
   
    12:05:00: Balancing the network:

              Trial  1: relative flow change = 0.047588
              Trial  2: relative flow change = 0.005284
                        maximum  flow change = 6.1152 for Link 5
                        maximum  head error  = 0.0002 for Link p-831

    12:05:00: Balanced after 2 trials
   
    12:10:00: Balancing the network:

              Trial  1: relative flow change = 0.060778
              Trial  2: relative flow change = 0.006351
                        maximum  flow change = 4.7614 for Link 5
                        maximum  head error  = 0.0005 for Link p-196

    12:10:00: Balanced after 2 trials
   
    12:15:00: Balancing the network:

              Trial  1: relative flow change = 0.042405
              Trial  2: relative flow change = 0.004440
                        maximum  flow change = 1.2420 for Link PRV_inlet
                        maximum  head error  = 0.0004 for Link p-582

    12:15:00: Balanced after 2 trials
   
    12:20:00: Balancing the network:

              Trial  1: relative flow change = 0.052579
              Trial  2: relative flow change = 0.009386
                        maximum  flow change = 2.6216 for Link PRV_inlet
                        maximum  head error  = 0.0002 for Link p-11

    12:20:00: Balanced after 2 trials
   
    12:25:00: Balancing the network:

              Trial  1: relative flow change = 0.046161
              Trial  2: relative flow change = 0.020801
              Trial  3: relative flow change = 0.001580
                        maximum  flow change = 2.2739 for Link PRV_inlet
                        maximum  head error  = 0.0000 for Link p-196

    12:25:00: Balanced after 3 trials
   
    12:30:00: Balancing the network:

              Trial  1: relative flow change = 0.066501
              Trial  2: relative flow change = 0.010231
              Trial  3: relative flow change = 0.000378
                        maximum  flow change = 0.2679 for Link 5
                        maximum  head error  = 0.0000 for Link p-729

    12:30:00: Balanced after 3 trials
   
    12:35:00: Balancing the network:

              Trial  1: relative flow change = 0.043022
              Trial  2: relative flow change = 0.006429
                        maximum  flow change = 4.2035 for Link PRV_inlet
                        maximum  head error  = 0.0001 for Link 5

    12:35:00: Balanced after 2 trials
   
    12:40:00: Balancing the network:

              Trial  1: relative flow change = 0.058380
              Trial  2: relative flow change = 0.009027
                        maximum  flow change = 8.0167 for Link 5
                        maximum  head error  = 0.0004 for Link 5

    12:40:00: Balanced after 2 trials
   
    12:45:00: Balancing the network:

              Trial  1: relative flow change = 0.045575
              Trial  2: relative flow change = 0.006247
                        maximum  flow change = 7.1621 for Link 5
                        maximum  head error  = 0.0003 for Link 5

    12:45:00: Balanced after 2 trials
   
    12:50:00: Balancing the network:

              Trial  1: relative flow change = 0.051809
              Trial  2: relative flow change = 0.018612
              Trial  3: relative flow change = 0.001165
                        maximum  flow change = 1.5517 for Link 5
                        maximum  head error  = 0.0000 for Link p-196

    12:50:00: Balanced after 3 trials
   
    12:55:00: Balancing the network:

              Trial  1: relative flow change = 0.052820
              Trial  2: relative flow change = 0.011881
              Trial  3: relative flow change = 0.000697
                        maximum  flow change = 0.7138 for Link PRV_inlet
                        maximum  head error  = 0.0000 for Link p-901

    12:55:00: Balanced after 3 trials
   
    13:00:00: Balancing the network:

              Trial  1: relative flow change = 0.058331
              Trial  2: relative flow change = 0.012303
              Trial  3: relative flow change = 0.001007
                        maximum  flow change = 1.1185 for Link 5
                        maximum  head error  = 0.0000 for Link p-248

    13:00:00: Balanced after 3 trials
   
    13:05:00: Balancing the network:

              Trial  1: relative flow change = 0.044445
              Trial  2: relative flow change = 0.009236
                        maximum  flow change = 1.0453 for Link p-1144
                        maximum  head error  = 0.0003 for Link p-973

    13:05:00: Balanced after 2 trials
   
    13:10:00: Balancing the network:

              Trial  1: relative flow change = 0.067963
              Trial  2: relative flow change = 0.016344
              Trial  3: relative flow change = 0.000884
                        maximum  flow change = 1.0083 for Link 5
                        maximum  head error  = 0.0000 for Link p-582

    13:10:00: Balanced after 3 trials
   
    13:15:00: Balancing the network:

              Trial  1: relative flow change = 0.032166
              Trial  2: relative flow change = 0.004117
                        maximum  flow change = 2.6075 for Link PRV_inlet
                        maximum  head error  = 0.0002 for Link p-582

    13:15:00: Balanced after 2 trials
   
    13:20:00: Balancing the network:

              Trial  1: relative flow change = 0.050667
              Trial  2: relative flow change = 0.011904
              Trial  3: relative flow change = 0.000640
                        maximum  flow change = 0.8001 for Link 5
                        maximum  head error  = 0.0000 for Link p-196

    13:20:00: Balanced after 3 trials
   
    13:25:00: Balancing the network:

              Trial  1: relative flow change = 0.064052
              Trial  2: relative flow change = 0.011537
              Trial  3: relative flow change = 0.000585
                        maximum  flow change = 0.9313 for Link 5
                        maximum  head error  = 0.0000 for Link 5

    13:25:00: Balanced after 3 trials
   
    13:30:00: Balancing the network:

              Trial  1: relative flow change = 0.060651
              Trial  2: relative flow change = 0.006723
                        maximum  flow change = 7.9572 for Link PRV_inlet
                        maximum  head error  = 0.0004 for Link 5

    13:30:00: Balanced after 2 trials
   
    13:35:00: Balancing the network:

              Trial  1: relative flow change = 0.076682
              Trial  2: relative flow change = 0.016864
              Trial  3: relative flow change = 0.000944
                        maximum  flow change = 1.5293 for Link PRV_inlet
                        maximum  head error  = 0.0000 for Link 5

    13:35:00: Balanced after 3 trials
   
    13:40:00: Balancing the network:

              Trial  1: relative flow change = 0.054543
              Trial  2: relative flow change = 0.006479
                        maximum  flow change = 8.1595 for Link PRV_inlet
                        maximum  head error  = 0.0004 for Link 5

    13:40:00: Balanced after 2 trials
   
    13:45:00: Balancing the network:

              Trial  1: relative flow change = 0.059243
              Trial  2: relative flow change = 0.019698
              Trial  3: relative flow change = 0.001448
                        maximum  flow change = 1.6589 for Link 5
                        maximum  head error  = 0.0000 for Link p-196

    13:45:00: Balanced after 3 trials
   
    13:50:00: Balancing the network:

              Trial  1: relative flow change = 0.047033
              Trial  2: relative flow change = 0.011859
              Trial  3: relative flow change = 0.000750
                        maximum  flow change = 1.0748 for Link PRV_inlet
                        maximum  head error  = 0.0000 for Link 5

    13:50:00: Balanced after 3 trials
   
    13:55:00: Balancing the network:

              Trial  1: relative flow change = 0.048781
              Trial  2: relative flow change = 0.005374
                        maximum  flow change = 4.2841 for Link PRV_inlet
                        maximum  head error  = 0.0003 for Link p-582

    13:55:00: Balanced after 2 trials
   
    14:00:00: Balancing the network:

              Trial  1: relative flow change = 0.045931
              Trial  2: relative flow change = 0.004096
                        maximum  flow change = 4.0200 for Link 5
                        maximum  head error  = 0.0001 for Link 5

    14:00:00: Balanced after 2 trials
   
    14:05:00: Balancing the network:

              Trial  1: relative flow change = 0.035676
              Trial  2: relative flow change = 0.013822
              Trial  3: relative flow change = 0.000953
                        maximum  flow change = 1.4619 for Link 5
                        maximum  head error  = 0.0000 for Link 5

    14:05:00: Balanced after 3 trials
   
    14:10:00: Balancing the network:

              Trial  1: relative flow change = 0.043266
              Trial  2: relative flow change = 0.009915
                        maximum  flow change = 3.1971 for Link PRV_inlet
                        maximum  head error  = 0.0002 for Link p-243

    14:10:00: Balanced after 2 trials
   
    14:15:00: Balancing the network:

              Trial  1: relative flow change = 0.048918
              Trial  2: relative flow change = 0.011270
              Trial  3: relative flow change = 0.000654
                        maximum  flow change = 0.9824 for Link PRV_inlet
                        maximum  head error  = 0.0000 for Link p-196

    14:15:00: Balanced after 3 trials
   
    14:20:00: Balancing the network:

              Trial  1: relative flow change = 0.068352
              Trial  2: relative flow change = 0.013218
              Trial  3: relative flow change = 0.000341
                        maximum  flow change = 0.4879 for Link PRV_inlet
                        maximum  head error  = 0.0000 for Link p-582

    14:20:00: Balanced after 3 trials
   
    14:25:00: Balancing the network:

              Trial  1: relative flow change = 0.081604
              Trial  2: relative flow change = 0.011678
              Trial  3: relative flow change = 0.000502
                        maximum  flow change = 0.2414 for Link 5
                        maximum  head error  = 0.0001 for Link p-582

    14:25:00: Balanced after 3 trials
   
    14:30:00: Balancing the network:

              Trial  1: relative flow change = 0.058884
              Trial  2: relative flow change = 0.009574
                        maximum  flow change = 8.6063 for Link PRV_inlet
                        maximum  head error  = 0.0004 for Link 5

    14:30:00: Balanced after 2 trials
   
    14:35:00: Balancing the network:

              Trial  1: relative flow change = 0.061595
              Trial  2: relative flow change = 0.013657
              Trial  3: relative flow change = 0.000788
                        maximum  flow change = 1.1211 for Link PRV_inlet
                        maximum  head error  = 0.0000 for Link p-196

    14:35:00: Balanced after 3 trials
   
    14:40:00: Balancing the network:

              Trial  1: relative flow change = 0.044214
              Trial  2: relative flow change = 0.006980
                        maximum  flow change = 6.0383 for Link PRV_inlet
                        maximum  head error  = 0.0002 for Link 5

    14:40:00: Balanced after 2 trials
   
    14:45:00: Balancing the network:

              Trial  1: relative flow change = 0.043341
              Trial  2: relative flow change = 0.009087
                        maximum  flow change = 5.4826 for Link 5
                        maximum  head error  = 0.0002 for Link p-243

    14:45:00: Balanced after 2 trials
   
    14:50:00: Balancing the network:

              Trial  1: relative flow change = 0.036592
              Trial  2: relative flow change = 0.013028
              Trial  3: relative flow change = 0.000964
                        maximum  flow change = 1.5367 for Link PRV_inlet
                        maximum  head error  = 0.0000 for Link 5

    14:50:00: Balanced after 3 trials
   
    14:55:00: Balancing the network:

              Trial  1: relative flow change = 0.052446
              Trial  2: relative flow change = 0.016497
              Trial  3: relative flow change = 0.001259
                        maximum  flow change = 1.7061 for Link 5
                        maximum  head error  = 0.0000 for Link p-196

    14:55:00: Balanced after 3 trials
   
    15:00:00: Balancing the network:

              Trial  1: relative flow change = 0.078929
              Trial  2: relative flow change = 0.011440
              Trial  3: relative flow change = 0.000361
                        maximum  flow change = 0.4966 for Link 5
                        maximum  head error  = 0.0000 for Link p-196

    15:00:00: Balanced after 3 trials
   
    15:05:00: Balancing the network:

              Trial  1: relative flow change = 0.048892
              Trial  2: relative flow change = 0.013925
              Trial  3: relative flow change = 0.000964
                        maximum  flow change = 1.3006 for Link 5
                        maximum  head error  = 0.0000 for Link p-196

    15:05:00: Balanced after 3 trials
   
    15:10:00: Balancing the network:

              Trial  1: relative flow change = 0.053483
              Trial  2: relative flow change = 0.014972
              Trial  3: relative flow change = 0.000748
                        maximum  flow change = 1.1689 for Link 5
                        maximum  head error  = 0.0000 for Link 5

    15:10:00: Balanced after 3 trials
   
    15:15:00: Balancing the network:

              Trial  1: relative flow change = 0.032826
              Trial  2: relative flow change = 0.006091
                        maximum  flow change = 3.7111 for Link 5
                        maximum  head error  = 0.0001 for Link 5

    15:15:00: Balanced after 2 trials
   
    15:20:00: Balancing the network:

              Trial  1: relative flow change = 0.049626
              Trial  2: relative flow change = 0.004801
                        maximum  flow change = 4.6551 for Link PRV_inlet
                        maximum  head error  = 0.0001 for Link p-1004

    15:20:00: Balanced after 2 trials
   
    15:25:00: Balancing the network:

              Trial  1: relative flow change = 0.081258
              Trial  2: relative flow change = 0.015301
              Trial  3: relative flow change = 0.000520
                        maximum  flow change = 0.8603 for Link PRV_inlet
                        maximum  head error  = 0.0000 for Link 5

    15:25:00: Balanced after 3 trials
   
    15:30:00: Balancing the network:

              Trial  1: relative flow change = 0.041056
              Trial  2: relative flow change = 0.007615
                        maximum  flow change = 0.9556 for Link p-1144
                        maximum  head error  = 0.0002 for Link p-11

    15:30:00: Balanced after 2 trials
   
    15:35:00: Balancing the network:

              Trial  1: relative flow change = 0.047423
              Trial  2: relative flow change = 0.004111
                        maximum  flow change = 2.9936 for Link 5
                        maximum  head error  = 0.0002 for Link p-729

    15:35:00: Balanced after 2 trials
   
    15:40:00: Balancing the network:

              Trial  1: relative flow change = 0.053571
              Trial  2: relative flow change = 0.009670
                        maximum  flow change = 9.7521 for Link PRV_inlet
                        maximum  head error  = 0.0005 for Link 5

    15:40:00: Balanced after 2 trials
   
    15:45:00: Balancing the network:

              Trial  1: relative flow change = 0.069728
              Trial  2: relative flow change = 0.019798
              Trial  3: relative flow change = 0.001344
                        maximum  flow change = 1.6719 for Link 5
                        maximum  head error  = 0.0002 for Link p-582

    15:45:00: Balanced after 3 trials
   
    15:50:00: Balancing the network:

              Trial  1: relative flow change = 0.042732
              Trial  2: relative flow change = 0.023667
              Trial  3: relative flow change = 0.002038
                        maximum  flow change = 2.8309 for Link 5
                        maximum  head error  = 0.0001 for Link p-196

    15:50:00: Balanced after 3 trials
   
    15:55:00: Balancing the network:

              Trial  1: relative flow change = 0.031619
              Trial  2: relative flow change = 0.011357
              Trial  3: relative flow change = 0.000881
                        maximum  flow change = 1.4611 for Link 5
                        maximum  head error  = 0.0000 for Link 5

    15:55:00: Balanced after 3 trials
   
    16:00:00: Balancing the network:

              Trial  1: relative flow change = 0.051225
              Trial  2: relative flow change = 0.011512
              Trial  3: relative flow change = 0.000440
                        maximum  flow change = 0.6986 for Link 5
                        maximum  head error  = 0.0000 for Link p-196

    16:00:00: Balanced after 3 trials
   
    16:05:00: Balancing the network:

              Trial  1: relative flow change = 0.053272
              Trial  2: relative flow change = 0.011267
              Trial  3: relative flow change = 0.000369
                        maximum  flow change = 0.6169 for Link PRV_inlet
                        maximum  head error  = 0.0000 for Link 5

    16:05:00: Balanced after 3 trials
   
    16:10:00: Balancing the network:

              Trial  1: relative flow change = 0.049688
              Trial  2: relative flow change = 0.007115
                        maximum  flow change = 6.6042 for Link 5
                        maximum  head error  = 0.0004 for Link p-243

    16:10:00: Balanced after 2 trials
   
    16:15:00: Balancing the network:

              Trial  1: relative flow change = 0.052834
              Trial  2: relative flow change = 0.010572
              Trial  3: relative flow change = 0.000525
                        maximum  flow change = 0.8694 for Link PRV_inlet
                        maximum  head error  = 0.0000 for Link 5

    16:15:00: Balanced after 3 trials
   
    16:20:00: Balancing the network:

              Trial  1: relative flow change = 0.056712
              Trial  2: relative flow change = 0.005879
                        maximum  flow change = 4.8694 for Link 5
                        maximum  head error  = 0.0002 for Link p-901

    16:20:00: Balanced after 2 trials
   
    16:25:00: Balancing the network:

              Trial  1: relative flow change = 0.048190
              Trial  2: relative flow change = 0.010170
              Trial  3: relative flow change = 0.000455
                        maximum  flow change = 0.7180 for Link 5
                        maximum  head error  = 0.0000 for Link 5

    16:25:00: Balanced after 3 trials
   
    16:30:00: Balancing the network:

              Trial  1: relative flow change = 0.040815
              Trial  2: relative flow change = 0.004955
                        maximum  flow change = 3.7800 for Link 5
                        maximum  head error  = 0.0001 for Link 5

    16:30:00: Balanced after 2 trials
   
    16:35:00: Balancing the network:

              Trial  1: relative flow change = 0.050701
              Trial  2: relative flow change = 0.008754
                        maximum  flow change = 7.0490 for Link PRV_inlet
                        maximum  head error  = 0.0003 for Link 5

    16:35:00: Balanced after 2 trials
   
    16:40:00: Balancing the network:

              Trial  1: relative flow change = 0.038387
              Trial  2: relative flow change = 0.009484
                        maximum  flow change = 1.5438 for Link 5
                        maximum  head error  = 0.0003 for Link p-766

    16:40:00: Balanced after 2 trials
   
    16:45:00: Balancing the network:

              Trial  1: relative flow change = 0.055442
              Trial  2: relative flow change = 0.012060
              Trial  3: relative flow change = 0.000371
                        maximum  flow change = 0.5812 for Link 5
                        maximum  head error  = 0.0000 for Link p-831

    16:45:00: Balanced after 3 trials
   
    16:50:00: Balancing the network:

              Trial  1: relative flow change = 0.034683
              Trial  2: relative flow change = 0.003238
                        maximum  flow change = 2.1162 for Link 5
                        maximum  head error  = 0.0002 for Link p-766

    16:50:00: Balanced after 2 trials
   
    16:55:00: Balancing the network:

              Trial  1: relative flow change = 0.048259
              Trial  2: relative flow change = 0.013089
              Trial  3: relative flow change = 0.000827
                        maximum  flow change = 1.4147 for Link 5
                        maximum  head error  = 0.0000 for Link 5

    16:55:00: Balanced after 3 trials
   
    17:00:00: Balancing the network:

              Trial  1: relative flow change = 0.049582
              Trial  2: relative flow change = 0.007711
                        maximum  flow change = 2.8155 for Link 5
                        maximum  head error  = 0.0002 for Link p-11

    17:00:00: Balanced after 2 trials
   
    17:05:00: Balancing the network:

              Trial  1: relative flow change = 0.045384
              Trial  2: relative flow change = 0.012988
              Trial  3: relative flow change = 0.000868
                        maximum  flow change = 1.3945 for Link 5
                        maximum  head error  = 0.0000 for Link 5

    17:05:00: Balanced after 3 trials
   
    17:10:00: Balancing the network:

              Trial  1: relative flow change = 0.058918
              Trial  2: relative flow change = 0.012524
              Trial  3: relative flow change = 0.000718
                        maximum  flow change = 1.1268 for Link 5
                        maximum  head error  = 0.0000 for Link 5

    17:10:00: Balanced after 3 trials
   
    17:15:00: Balancing the network:

              Trial  1: relative flow change = 0.060852
              Trial  2: relative flow change = 0.014019
              Trial  3: relative flow change = 0.001031
                        maximum  flow change = 1.5851 for Link PRV_inlet
                        maximum  head error  = 0.0000 for Link 5

    17:15:00: Balanced after 3 trials
   
    17:20:00: Balancing the network:

              Trial  1: relative flow change = 0.035412
              Trial  2: relative flow change = 0.011031
              Trial  3: relative flow change = 0.000830
                        maximum  flow change = 1.4472 for Link PRV_inlet
                        maximum  head error  = 0.0000 for Link 5

    17:20:00: Balanced after 3 trials
   
    17:25:00: Balancing the network:

              Trial  1: relative flow change = 0.035174
              Trial  2: relative flow change = 0.010553
              Trial  3: relative flow change = 0.000570
                        maximum  flow change = 1.0170 for Link 5
                        maximum  head error  = 0.0000 for Link 5

    17:25:00: Balanced after 3 trials
   
    17:30:00: Balancing the network:

              Trial  1: relative flow change = 0.047697
              Trial  2: relative flow change = 0.009844
                        maximum  flow change = 6.8979 for Link 5
                        maximum  head error  = 0.0005 for Link p-901

    17:30:00: Balanced after 2 trials
   
    17:35:00: Balancing the network:

              Trial  1: relative flow change = 0.035518
              Trial  2: relative flow change = 0.005301
                        maximum  flow change = 0.6991 for Link PRV_dist
                        maximum  head error  = 0.0001 for Link p-461

    17:35:00: Balanced after 2 trials
   
    17:40:00: Balancing the network:

              Trial  1: relative flow change = 0.039331
              Trial  2: relative flow change = 0.004492
                        maximum  flow change = 3.6627 for Link 5
                        maximum  head error  = 0.0001 for Link 5

    17:40:00: Balanced after 2 trials
   
    17:45:00: Balancing the network:

              Trial  1: relative flow change = 0.044387
              Trial  2: relative flow change = 0.011860
              Trial  3: relative flow change = 0.000730
                        maximum  flow change = 1.2452 for Link 5
                        maximum  head error  = 0.0000 for Link 5

    17:45:00: Balanced after 3 trials
   
    17:50:00: Balancing the network:

              Trial  1: relative flow change = 0.029135
              Trial  2: relative flow change = 0.007009
                        maximum  flow change = 0.9176 for Link p-1144
                        maximum  head error  = 0.0002 for Link p-461

    17:50:00: Balanced after 2 trials
   
    17:55:00: Balancing the network:

              Trial  1: relative flow change = 0.043742
              Trial  2: relative flow change = 0.009675
                        maximum  flow change = 7.1953 for Link 5
                        maximum  head error  = 0.0003 for Link 5

    17:55:00: Balanced after 2 trials
   
    18:00:00: Balancing the network:

              Trial  1: relative flow change = 0.058925
              Trial  2: relative flow change = 0.009700
                        maximum  flow change = 11.8564 for Link 5
                        maximum  head error  = 0.0008 for Link 5

    18:00:00: Balanced after 2 trials
   
    18:05:00: Balancing the network:

              Trial  1: relative flow change = 0.042522
              Trial  2: relative flow change = 0.003076
                        maximum  flow change = 1.2818 for Link 5
                        maximum  head error  = 0.0001 for Link p-789

    18:05:00: Balanced after 2 trials
   
    18:10:00: Balancing the network:

              Trial  1: relative flow change = 0.047528
              Trial  2: relative flow change = 0.011392
              Trial  3: relative flow change = 0.000685
                        maximum  flow change = 1.1206 for Link PRV_inlet
                        maximum  head error  = 0.0000 for Link 5

    18:10:00: Balanced after 3 trials
   
    18:15:00: Balancing the network:

              Trial  1: relative flow change = 0.038121
              Trial  2: relative flow change = 0.009011
                        maximum  flow change = 4.4720 for Link PRV_inlet
                        maximum  head error  = 0.0002 for Link p-11

    18:15:00: Balanced after 2 trials
   
    18:20:00: Balancing the network:

              Trial  1: relative flow change = 0.044957
              Trial  2: relative flow change = 0.005480
                        maximum  flow change = 4.3124 for Link PRV_inlet
                        maximum  head error  = 0.0001 for Link p-196

    18:20:00: Balanced after 2 trials
   
    18:25:00: Balancing the network:

              Trial  1: relative flow change = 0.050484
              Trial  2: relative flow change = 0.007013
[...]
              Trial  2: relative flow change = 0.002118
                        maximum  flow change = 0.1672 for Link 5
                        maximum  head error  = 0.0001 for Link p-547

   211:35:00: Balanced after 2 trials
   
   211:40:00: Balancing the network:

              Trial  1: relative flow change = 0.049345
              Trial  2: relative flow change = 0.015007
              Trial  3: relative flow change = 0.000176
                        maximum  flow change = 0.0528 for Link p-226
                        maximum  head error  = 0.0000 for Link p-226

   211:40:00: Balanced after 3 trials
   
   211:45:00: Balancing the network:

              Trial  1: relative flow change = 0.034817
              Trial  2: relative flow change = 0.018012
              Trial  3: relative flow change = 0.000168
                        maximum  flow change = 0.0376 for Link p-226
                        maximum  head error  = 0.0000 for Link p-226

   211:45:00: Balanced after 3 trials
   
   211:50:00: Balancing the network:

              Trial  1: relative flow change = 0.076216
              Trial  2: relative flow change = 0.005946
                        maximum  flow change = 0.7156 for Link p-1144
                        maximum  head error  = 0.0001 for Link p-11

   211:50:00: Balanced after 2 trials
   
   211:55:00: Balancing the network:

              Trial  1: relative flow change = 0.046921
              Trial  2: relative flow change = 0.004790
                        maximum  flow change = 0.4763 for Link PRV_dist
                        maximum  head error  = 0.0002 for Link p-831

   211:55:00: Balanced after 2 trials
   
   212:00:00: Balancing the network:

              Trial  1: relative flow change = 0.050567
              Trial  2: relative flow change = 0.006799
                        maximum  flow change = 0.8300 for Link PRV_inlet
                        maximum  head error  = 0.0002 for Link p-461

   212:00:00: Balanced after 2 trials
   
   212:05:00: Balancing the network:

              Trial  1: relative flow change = 0.043635
              Trial  2: relative flow change = 0.007908
                        maximum  flow change = 0.7708 for Link PRV_dist
                        maximum  head error  = 0.0004 for Link p-547

   212:05:00: Balanced after 2 trials
   
   212:10:00: Balancing the network:

              Trial  1: relative flow change = 0.042233
              Trial  2: relative flow change = 0.003897
                        maximum  flow change = 0.3642 for Link PRV_dist
                        maximum  head error  = 0.0007 for Link p-547

   212:10:00: Balanced after 2 trials
   
   212:15:00: Balancing the network:

              Trial  1: relative flow change = 0.051508
              Trial  2: relative flow change = 0.003415
                        maximum  flow change = 0.2702 for Link p-526
                        maximum  head error  = 0.0001 for Link p-526

   212:15:00: Balanced after 2 trials
   
   212:20:00: Balancing the network:

              Trial  1: relative flow change = 0.058519
              Trial  2: relative flow change = 0.005744
                        maximum  flow change = 0.5057 for Link PRV_dist
                        maximum  head error  = 0.0004 for Link p-766

   212:20:00: Balanced after 2 trials
   
   212:25:00: Balancing the network:

              Trial  1: relative flow change = 0.062112
              Trial  2: relative flow change = 0.005399
                        maximum  flow change = 0.5031 for Link 5
                        maximum  head error  = 0.0002 for Link p-243

   212:25:00: Balanced after 2 trials
   
   212:30:00: Balancing the network:

              Trial  1: relative flow change = 0.102885
              Trial  2: relative flow change = 0.005704
                        maximum  flow change = 0.5628 for Link p-1144
                        maximum  head error  = 0.0002 for Link p-196

   212:30:00: Balanced after 2 trials
   
   212:35:00: Balancing the network:

              Trial  1: relative flow change = 0.051903
              Trial  2: relative flow change = 0.006704
                        maximum  flow change = 0.5907 for Link PRV_dist
                        maximum  head error  = 0.0012 for Link p-729

   212:35:00: Balanced after 2 trials
   
   212:40:00: Balancing the network:

              Trial  1: relative flow change = 0.090764
              Trial  2: relative flow change = 0.002233
                        maximum  flow change = 0.2630 for Link p-181
                        maximum  head error  = 0.0001 for Link p-248

   212:40:00: Balanced after 2 trials
   
   212:45:00: Balancing the network:

              Trial  1: relative flow change = 0.049223
              Trial  2: relative flow change = 0.005563
                        maximum  flow change = 0.5585 for Link p-1144
                        maximum  head error  = 0.0006 for Link p-196

   212:45:00: Balanced after 2 trials
   
   212:50:00: Balancing the network:

              Trial  1: relative flow change = 0.035791
              Trial  2: relative flow change = 0.005106
                        maximum  flow change = 0.5154 for Link PRV_dist
                        maximum  head error  = 0.0001 for Link p-278

   212:50:00: Balanced after 2 trials
   
   212:55:00: Balancing the network:

              Trial  1: relative flow change = 0.043545
              Trial  2: relative flow change = 0.002170
                        maximum  flow change = 0.1728 for Link p-923
                        maximum  head error  = 0.0000 for Link p-766

   212:55:00: Balanced after 2 trials
   
   213:00:00: Balancing the network:

              Trial  1: relative flow change = 0.043456
              Trial  2: relative flow change = 0.003075
                        maximum  flow change = 0.2317 for Link p-1004
                        maximum  head error  = 0.0001 for Link p-973

   213:00:00: Balanced after 2 trials
   
   213:05:00: Balancing the network:

              Trial  1: relative flow change = 0.053843
              Trial  2: relative flow change = 0.005953
                        maximum  flow change = 0.5799 for Link PRV_dist
                        maximum  head error  = 0.0001 for Link p-582

   213:05:00: Balanced after 2 trials
   
   213:10:00: Balancing the network:

              Trial  1: relative flow change = 0.060099
              Trial  2: relative flow change = 0.016685
              Trial  3: relative flow change = 0.000450
                        maximum  flow change = 0.0662 for Link p-243
                        maximum  head error  = 0.0000 for Link p-115

   213:10:00: Balanced after 3 trials
   
   213:15:00: Balancing the network:

              Trial  1: relative flow change = 0.095304
              Trial  2: relative flow change = 0.008705
                        maximum  flow change = 0.7969 for Link p-1144
                        maximum  head error  = 0.0002 for Link p-278

   213:15:00: Balanced after 2 trials
   
   213:20:00: Balancing the network:

              Trial  1: relative flow change = 0.034167
              Trial  2: relative flow change = 0.002779
                        maximum  flow change = 0.2033 for Link p-1144
                        maximum  head error  = 0.0001 for Link p-973

   213:20:00: Balanced after 2 trials
   
   213:25:00: Balancing the network:

              Trial  1: relative flow change = 0.037256
              Trial  2: relative flow change = 0.007328
                        maximum  flow change = 0.6390 for Link PRV_dist
                        maximum  head error  = 0.0002 for Link p-1491

   213:25:00: Balanced after 2 trials
   
   213:30:00: Balancing the network:

              Trial  1: relative flow change = 0.061928
              PRV PRV_inlet switched from open to active
              Trial  2: relative flow change = 0.005457
                        maximum  flow change = 0.5014 for Link p-1144
                        maximum  head error  = 0.0001 for Link p-582

   213:30:00: Balanced after 2 trials
   213:30:00: PRV PRV_inlet changed from open to active
   
   213:35:00: Balancing the network:

              Trial  1: relative flow change = 0.047390
              Trial  2: relative flow change = 0.010143
              Trial  3: relative flow change = 0.000620
                        maximum  flow change = 0.8738 for Link PRV_inlet
                        maximum  head error  = 0.0000 for Link 5

   213:35:00: Balanced after 3 trials
   
   213:40:00: Balancing the network:

              Trial  1: relative flow change = 0.050483
              Trial  2: relative flow change = 0.012409
              PRV PRV_inlet switched from active to open
              Trial  3: relative flow change = 0.000713
              PRV PRV_inlet switched from open to active
                        maximum  flow change = 0.9244 for Link 5
                        maximum  head error  = 0.0000 for Link 5

              Trial  4: relative flow change = 0.000004
                        maximum  flow change = 0.0004 for Link p-582
                        maximum  head error  = 0.0000 for Link p-582

   213:40:00: Balanced after 4 trials
   
   213:45:00: Balancing the network:

              Trial  1: relative flow change = 0.053740
              Trial  2: relative flow change = 0.012493
              Trial  3: relative flow change = 0.000797
                        maximum  flow change = 0.8463 for Link 5
                        maximum  head error  = 0.0000 for Link p-582

   213:45:00: Balanced after 3 trials
   
   213:50:00: Balancing the network:

              Trial  1: relative flow change = 0.088324
              Trial  2: relative flow change = 0.008791
                        maximum  flow change = 8.2816 for Link 5
                        maximum  head error  = 0.0004 for Link 5

   213:50:00: Balanced after 2 trials
   
   213:55:00: Balancing the network:

              Trial  1: relative flow change = 0.057915
              Trial  2: relative flow change = 0.010580
              Trial  3: relative flow change = 0.000832
                        maximum  flow change = 1.0168 for Link PRV_inlet
                        maximum  head error  = 0.0000 for Link 5

   213:55:00: Balanced after 3 trials
   
   214:00:00: Balancing the network:

              Trial  1: relative flow change = 0.044158
              Trial  2: relative flow change = 0.007191
                        maximum  flow change = 5.0331 for Link 5
                        maximum  head error  = 0.0003 for Link p-582

   214:00:00: Balanced after 2 trials
   
   214:05:00: Balancing the network:

              Trial  1: relative flow change = 0.075992
              Trial  2: relative flow change = 0.005347
                        maximum  flow change = 2.5901 for Link 5
                        maximum  head error  = 0.0000 for Link 5

   214:05:00: Balanced after 2 trials
   
   214:10:00: Balancing the network:

              Trial  1: relative flow change = 0.046976
              Trial  2: relative flow change = 0.004349
                        maximum  flow change = 3.0784 for Link PRV_inlet
                        maximum  head error  = 0.0001 for Link p-831

   214:10:00: Balanced after 2 trials
   
   214:15:00: Balancing the network:

              Trial  1: relative flow change = 0.063644
              Trial  2: relative flow change = 0.012272
              Trial  3: relative flow change = 0.000572
                        maximum  flow change = 0.5216 for Link PRV_inlet
                        maximum  head error  = 0.0000 for Link p-196

   214:15:00: Balanced after 3 trials
   
   214:20:00: Balancing the network:

              Trial  1: relative flow change = 0.037203
              Trial  2: relative flow change = 0.010286
              Trial  3: relative flow change = 0.000731
                        maximum  flow change = 0.8291 for Link 5
                        maximum  head error  = 0.0000 for Link 5

   214:20:00: Balanced after 3 trials
   214:20:00: Tank T_Zone is filling at 1.90 m
   
   214:25:00: Balancing the network:

              Trial  1: relative flow change = 0.041837
              Trial  2: relative flow change = 0.009343
                        maximum  flow change = 3.2807 for Link 5
                        maximum  head error  = 0.0003 for Link p-243

   214:25:00: Balanced after 2 trials
   
   214:30:00: Balancing the network:

              Trial  1: relative flow change = 0.071540
              Trial  2: relative flow change = 0.012649
              Trial  3: relative flow change = 0.000470
                        maximum  flow change = 0.2291 for Link PRV_inlet
                        maximum  head error  = 0.0000 for Link p-729

   214:30:00: Balanced after 3 trials
   
   214:35:00: Balancing the network:

              Trial  1: relative flow change = 0.036994
              Trial  2: relative flow change = 0.007355
                        maximum  flow change = 1.6325 for Link PRV_inlet
                        maximum  head error  = 0.0001 for Link p-831

   214:35:00: Balanced after 2 trials
   
   214:40:00: Balancing the network:

              Trial  1: relative flow change = 0.044535
              Trial  2: relative flow change = 0.006749
                        maximum  flow change = 1.1798 for Link 5
                        maximum  head error  = 0.0001 for Link p-312

   214:40:00: Balanced after 2 trials
   
   214:45:00: Balancing the network:

              Trial  1: relative flow change = 0.044853
              Trial  2: relative flow change = 0.006722
                        maximum  flow change = 3.7773 for Link PRV_inlet
                        maximum  head error  = 0.0006 for Link p-196

   214:45:00: Balanced after 2 trials
   
   214:50:00: Balancing the network:

              Trial  1: relative flow change = 0.068733
              Trial  2: relative flow change = 0.010497
              Trial  3: relative flow change = 0.000397
                        maximum  flow change = 0.2760 for Link PRV_inlet
                        maximum  head error  = 0.0000 for Link p-196

   214:50:00: Balanced after 3 trials
   
   214:55:00: Balancing the network:

              Trial  1: relative flow change = 0.050190
              Trial  2: relative flow change = 0.009212
                        maximum  flow change = 5.3445 for Link 5
                        maximum  head error  = 0.0002 for Link 5

   214:55:00: Balanced after 2 trials
   
   215:00:00: Balancing the network:

              Trial  1: relative flow change = 0.076214
              Trial  2: relative flow change = 0.010581
              Trial  3: relative flow change = 0.000330
                        maximum  flow change = 0.1689 for Link PRV_inlet
                        maximum  head error  = 0.0000 for Link p-729

   215:00:00: Balanced after 3 trials
   
   215:05:00: Balancing the network:

              Trial  1: relative flow change = 0.080443
              Trial  2: relative flow change = 0.008738
                        maximum  flow change = 7.7836 for Link PRV_inlet
                        maximum  head error  = 0.0004 for Link 5

   215:05:00: Balanced after 2 trials
   
   215:10:00: Balancing the network:

              Trial  1: relative flow change = 0.060396
              Trial  2: relative flow change = 0.011000
              Trial  3: relative flow change = 0.000689
                        maximum  flow change = 0.6547 for Link 5
                        maximum  head error  = 0.0000 for Link 5

   215:10:00: Balanced after 3 trials
   
   215:15:00: Balancing the network:

              Trial  1: relative flow change = 0.047753
              Trial  2: relative flow change = 0.010721
              Trial  3: relative flow change = 0.000603
                        maximum  flow change = 0.4770 for Link 5
                        maximum  head error  = 0.0000 for Link p-196

   215:15:00: Balanced after 3 trials
   
   215:20:00: Balancing the network:

              Trial  1: relative flow change = 0.033276
              Trial  2: relative flow change = 0.009617
                        maximum  flow change = 2.7971 for Link PRV_inlet
                        maximum  head error  = 0.0001 for Link p-11

   215:20:00: Balanced after 2 trials
   
   215:25:00: Balancing the network:

              Trial  1: relative flow change = 0.054266
              Trial  2: relative flow change = 0.013567
              Trial  3: relative flow change = 0.001003
                        maximum  flow change = 0.8499 for Link PRV_inlet
                        maximum  head error  = 0.0000 for Link p-196

   215:25:00: Balanced after 3 trials
   
   215:30:00: Balancing the network:

              Trial  1: relative flow change = 0.038096
              Trial  2: relative flow change = 0.005699
                        maximum  flow change = 2.7771 for Link PRV_inlet
                        maximum  head error  = 0.0001 for Link p-973

   215:30:00: Balanced after 2 trials
   
   215:35:00: Balancing the network:

              Trial  1: relative flow change = 0.047342
              Trial  2: relative flow change = 0.006434
                        maximum  flow change = 2.4352 for Link 5
                        maximum  head error  = 0.0001 for Link p-789

   215:35:00: Balanced after 2 trials
   
   215:40:00: Balancing the network:

              Trial  1: relative flow change = 0.063277
              Trial  2: relative flow change = 0.014578
              Trial  3: relative flow change = 0.000450
                        maximum  flow change = 0.3809 for Link 5
                        maximum  head error  = 0.0000 for Link 5

   215:40:00: Balanced after 3 trials
   
   215:45:00: Balancing the network:

              Trial  1: relative flow change = 0.038260
              Trial  2: relative flow change = 0.008850
                        maximum  flow change = 2.9957 for Link 5
                        maximum  head error  = 0.0001 for Link p-461

   215:45:00: Balanced after 2 trials
   
   215:50:00: Balancing the network:

              Trial  1: relative flow change = 0.067262
              Trial  2: relative flow change = 0.020039
              Trial  3: relative flow change = 0.001401
                        maximum  flow change = 0.9873 for Link PRV_inlet
                        maximum  head error  = 0.0000 for Link p-582

   215:50:00: Balanced after 3 trials
   
   215:55:00: Balancing the network:

              Trial  1: relative flow change = 0.073442
              Trial  2: relative flow change = 0.009523
                        maximum  flow change = 5.4045 for Link 5
                        maximum  head error  = 0.0002 for Link 5

   215:55:00: Balanced after 2 trials
   
   216:00:00: Balancing the network:

              Trial  1: relative flow change = 0.037855
              Trial  2: relative flow change = 0.019562
              Trial  3: relative flow change = 0.001902
                        maximum  flow change = 1.4069 for Link PRV_inlet
                        maximum  head error  = 0.0000 for Link 5

   216:00:00: Balanced after 3 trials
   
  Hydraulic Flow Balance (m3/h)
  ================================
  Total Inflow:           380.000
  Consumer Demand:        414.362
  Demand Deficit:           0.000
  Emitter Flow:             0.000
  Leakage Flow:             0.000
  Total Outflow:          414.362
  Storage Flow:           -34.341
  Flow Ratio:               1.000
  ================================

  Water Quality Mass Balance (mg)
  ================================
  Initial Mass:       0.00000e+00
  Mass Inflow:        4.92486e+07
  Mass Outflow:       1.13935e+07
  Mass Reacted:       3.61121e+07
  Final Mass:         1.74373e+06
  Mass Ratio:         1.00002
  Total Segments:     1293
  ================================

  Analysis ended Tue Apr 21 09:20:04 2026
