  Page 1                                    Wed May 27 09:20:12 2026

  ******************************************************************
  *                           E P A N E T                          *
  *                   Hydraulic and Water Quality                  *
  *                   Analysis for Pipe Networks                   *
  *                          Version 2.3.04                        *
  ******************************************************************
  