  Page 1                                    Tue May 26 08:45:14 2026

  ******************************************************************
  *                           E P A N E T                          *
  *                   Hydraulic and Water Quality                  *
  *                   Analysis for Pipe Networks                   *
  *                          Version 2.3.04                        *
  ******************************************************************
  
  Processing MSX input file arsenic_contamination.msx
  
  Analysis begun Tue May 26 08:45:16 2026

  Analysis ended Tue May 26 08:45:16 2026
